MODEL 1
REMARK VINA RESULT:      -5.2      0.000      0.000
REMARK WARNING: 32 MAX_TORS EXCEEDED!!!
REMARK  111 active torsions:
REMARK  status: ('A' for Active; 'I' for Inactive)
REMARK    1  A    between atoms: C2_2  and  N2_7 
REMARK    2  A    between atoms: C3_3  and  O3_12 
REMARK    3  A    between atoms: C4_4  and  O4_17 
REMARK    4  A    between atoms: C5_5  and  C6_14 
REMARK    5  A    between atoms: C6_14  and  O6_15 
REMARK       I    between atoms: C7_8  and  N2_7 
REMARK    6  A    between atoms: C2_33  and  N2_49 
REMARK    7  A    between atoms: C3_35  and  O3_51 
REMARK    8  A    between atoms: C4_37  and  O4_53 
REMARK    9  A    between atoms: C5_39  and  C6_41 
REMARK   10  A    between atoms: C6_41  and  O6_56 
REMARK       I    between atoms: C7_44  and  N2_49 
REMARK   11  A    between atoms: C2_62  and  N2_78 
REMARK   12  A    between atoms: C3_64  and  O3_80 
REMARK   13  A    between atoms: C4_66  and  O4_82 
REMARK   14  A    between atoms: C5_68  and  C6_70 
REMARK   15  A    between atoms: C6_70  and  O6_85 
REMARK       I    between atoms: C7_73  and  N2_78 
REMARK   16  A    between atoms: C2_91  and  N2_107 
REMARK   17  A    between atoms: C3_93  and  O3_109 
REMARK   18  A    between atoms: C4_95  and  O4_111 
REMARK   19  A    between atoms: C5_97  and  C6_99 
REMARK   20  A    between atoms: C6_99  and  O6_114 
REMARK       I    between atoms: C7_102  and  N2_107 
REMARK   21  A    between atoms: C1_117  and  O1_119 
REMARK   22  A    between atoms: O1_119  and  C1'_140 
REMARK   23  A    between atoms: C2_120  and  O2_122 
REMARK   24  A    between atoms: C3_124  and  O3_126 
REMARK   25  A    between atoms: C4_128  and  O4_130 
REMARK   26  A    between atoms: C5_132  and  C6_135 
REMARK   27  A    between atoms: C6_135  and  O6_138 
REMARK   28  A    between atoms: C1'_140  and  C2'_143 
REMARK   29  A    between atoms: C2'_143  and  C3'_146 
REMARK   30  A    between atoms: C3'_146  and  C4'_149 
REMARK   31  A    between atoms: C4'_149  and  C5'_152 
REMARK   32  A    between atoms: C5'_152  and  C6'_155 
REMARK   33  A    between atoms: C6'_155  and  C7'_158 
REMARK   34  A    between atoms: C1_165  and  O1_167 
REMARK   35  A    between atoms: O1_167  and  C1'_188 
REMARK   36  A    between atoms: C2_168  and  O2_170 
REMARK   37  A    between atoms: C3_172  and  O3_174 
REMARK   38  A    between atoms: C4_176  and  O4_178 
REMARK   39  A    between atoms: C5_180  and  C6_183 
REMARK   40  A    between atoms: C6_183  and  O6_186 
REMARK   41  A    between atoms: C1'_188  and  C2'_191 
REMARK   42  A    between atoms: C3'_193  and  C4'_195 
REMARK   43  A    between atoms: C4'_195  and  C5'_198 
REMARK   44  A    between atoms: C5'_198  and  C6'_201 
REMARK   45  A    between atoms: C2_212  and  N2_228 
REMARK   46  A    between atoms: C3_214  and  O3_230 
REMARK   47  A    between atoms: C4_216  and  O4_232 
REMARK   48  A    between atoms: C5_218  and  C6_220 
REMARK   49  A    between atoms: C6_220  and  O6_235 
REMARK       I    between atoms: C7_223  and  N2_228 
REMARK   50  A    between atoms: C2A_247  and  CAA_254 
REMARK   51  A    between atoms: CAA_254  and  CBA_257 
REMARK   52  A    between atoms: CBA_257  and  CGA_260 
REMARK   53  A    between atoms: C3B_265  and  CAB_271 
REMARK   54  A    between atoms: C3C_280  and  CAC_286 
REMARK   55  A    between atoms: C3D_295  and  CAD_301 
REMARK   56  A    between atoms: CAD_301  and  CBD_304 
REMARK   57  A    between atoms: CBD_304  and  CGD_307 
REMARK   58  A    between atoms: C1_318  and  C6_332 
REMARK   59  A    between atoms: C2_319  and  C3_322 
REMARK   60  A    between atoms: C2_319  and  C11_343 
REMARK   61  A    between atoms: C6_332  and  C8_338 
REMARK   62  A    between atoms: C2_353  and  N2_369 
REMARK   63  A    between atoms: C3_355  and  O3_371 
REMARK   64  A    between atoms: C4_357  and  O4_373 
REMARK   65  A    between atoms: C5_359  and  C6_361 
REMARK   66  A    between atoms: C6_361  and  O6_376 
REMARK       I    between atoms: C7_364  and  N2_369 
REMARK   67  A    between atoms: C2_382  and  N2_398 
REMARK   68  A    between atoms: C3_384  and  O3_400 
REMARK   69  A    between atoms: C4_386  and  O4_402 
REMARK   70  A    between atoms: C5_388  and  C6_390 
REMARK   71  A    between atoms: C6_390  and  O6_405 
REMARK       I    between atoms: C7_393  and  N2_398 
REMARK   72  A    between atoms: C2_411  and  N2_427 
REMARK   73  A    between atoms: C3_413  and  O3_429 
REMARK   74  A    between atoms: C4_415  and  O4_431 
REMARK   75  A    between atoms: C5_417  and  C6_419 
REMARK   76  A    between atoms: C6_419  and  O6_434 
REMARK       I    between atoms: C7_422  and  N2_427 
REMARK   77  A    between atoms: C2_440  and  N2_456 
REMARK   78  A    between atoms: C3_442  and  O3_458 
REMARK   79  A    between atoms: C4_444  and  O4_460 
REMARK   80  A    between atoms: C5_446  and  C6_448 
REMARK   81  A    between atoms: C6_448  and  O6_463 
REMARK       I    between atoms: C7_451  and  N2_456 
REMARK   82  A    between atoms: C2_469  and  N2_485 
REMARK   83  A    between atoms: C3_471  and  O3_487 
REMARK   84  A    between atoms: C4_473  and  O4_489 
REMARK   85  A    between atoms: C5_475  and  C6_477 
REMARK   86  A    between atoms: C6_477  and  O6_492 
REMARK       I    between atoms: C7_480  and  N2_485 
REMARK   87  A    between atoms: C1_495  and  O1_497 
REMARK   88  A    between atoms: O1_497  and  C1'_518 
REMARK   89  A    between atoms: C2_498  and  O2_500 
REMARK   90  A    between atoms: C3_502  and  O3_504 
REMARK   91  A    between atoms: C4_506  and  O4_508 
REMARK   92  A    between atoms: C5_510  and  C6_513 
REMARK   93  A    between atoms: C6_513  and  O6_516 
REMARK   94  A    between atoms: C1'_518  and  C2'_521 
REMARK   95  A    between atoms: C2'_521  and  C3'_524 
REMARK   96  A    between atoms: C3'_524  and  C4'_527 
REMARK   97  A    between atoms: C4'_527  and  C5'_530 
REMARK   98  A    between atoms: C5'_530  and  C6'_533 
REMARK   99  A    between atoms: C6'_533  and  C7'_536 
REMARK  100  A    between atoms: C2A_552  and  CAA_559 
REMARK  101  A    between atoms: CAA_559  and  CBA_562 
REMARK  102  A    between atoms: CBA_562  and  CGA_565 
REMARK  103  A    between atoms: C3B_570  and  CAB_576 
REMARK  104  A    between atoms: C3C_585  and  CAC_591 
REMARK  105  A    between atoms: C3D_600  and  CAD_606 
REMARK  106  A    between atoms: CAD_606  and  CBD_609 
REMARK  107  A    between atoms: CBD_609  and  CGD_612 
REMARK  108  A    between atoms: C1_623  and  C6_637 
REMARK  109  A    between atoms: C2_624  and  C3_627 
REMARK  110  A    between atoms: C2_624  and  C11_648 
REMARK  111  A    between atoms: C6_637  and  C8_643 
ROOT
HETATM    1  C1  NAG A 661       7.337  12.281  24.397  1.00 56.58     0.196 C 
HETATM    2  C2  NAG A 661       6.932  13.754  24.460  1.00 57.13     0.139 C 
HETATM    3  C3  NAG A 661       5.716  13.971  23.533  1.00 58.75     0.174 C 
HETATM    4  C4  NAG A 661       6.063  13.567  22.074  1.00 59.05     0.180 C 
HETATM    5  C5  NAG A 661       6.622  12.111  22.045  1.00 58.18     0.176 C 
HETATM    6  O5  NAG A 661       7.689  11.929  23.027  1.00 56.64    -0.379 OA
ENDROOT
BRANCH   2   7
HETATM    7  N2  NAG A 661       6.616  14.112  25.831  1.00 56.54    -0.352 N 
HETATM    8  C7  NAG A 661       7.087  15.248  26.360  1.00 56.74     0.214 C 
HETATM    9  C8  NAG A 661       6.247  15.917  27.437  1.00 56.94     0.117 C 
HETATM   10  O7  NAG A 661       8.160  15.763  26.011  1.00 55.51    -0.274 OA
HETATM   11  H2  NAG A 661       6.031  13.496  26.393  1.00  0.00     0.163 HD
ENDBRANCH   2   7
BRANCH   3  12
HETATM   12  O3  NAG A 661       5.315  15.333  23.575  1.00 59.03    -0.391 OA
HETATM   13  H3  NAG A 661       5.307  15.639  24.475  1.00  0.00     0.210 HD
ENDBRANCH   3  12
BRANCH   5  14
HETATM   14  C6  NAG A 661       7.214  11.700  20.709  1.00 57.73     0.198 C 
BRANCH  14  15
HETATM   15  O6  NAG A 661       6.506  10.605  20.140  1.00 57.21    -0.398 OA
HETATM   16  H6  NAG A 661       6.581   9.825  20.677  1.00  0.00     0.209 HD
ENDBRANCH  14  15
ENDBRANCH   5  14
BRANCH   4  17
HETATM   17  O4  NAG A 661       4.891  13.658  21.262  1.00 60.81    -0.390 OA
HETATM   18  H4  NAG A 661       4.522  12.792  21.139  1.00  0.00     0.210 HD
ENDBRANCH   4  17
TORSDOF 111
ENDMDL
MODEL 2
REMARK VINA RESULT:      -5.2      4.425      5.873
REMARK WARNING: 32 MAX_TORS EXCEEDED!!!
REMARK  111 active torsions:
REMARK  status: ('A' for Active; 'I' for Inactive)
REMARK    1  A    between atoms: C2_2  and  N2_7 
REMARK    2  A    between atoms: C3_3  and  O3_12 
REMARK    3  A    between atoms: C4_4  and  O4_17 
REMARK    4  A    between atoms: C5_5  and  C6_14 
REMARK    5  A    between atoms: C6_14  and  O6_15 
REMARK       I    between atoms: C7_8  and  N2_7 
REMARK    6  A    between atoms: C2_33  and  N2_49 
REMARK    7  A    between atoms: C3_35  and  O3_51 
REMARK    8  A    between atoms: C4_37  and  O4_53 
REMARK    9  A    between atoms: C5_39  and  C6_41 
REMARK   10  A    between atoms: C6_41  and  O6_56 
REMARK       I    between atoms: C7_44  and  N2_49 
REMARK   11  A    between atoms: C2_62  and  N2_78 
REMARK   12  A    between atoms: C3_64  and  O3_80 
REMARK   13  A    between atoms: C4_66  and  O4_82 
REMARK   14  A    between atoms: C5_68  and  C6_70 
REMARK   15  A    between atoms: C6_70  and  O6_85 
REMARK       I    between atoms: C7_73  and  N2_78 
REMARK   16  A    between atoms: C2_91  and  N2_107 
REMARK   17  A    between atoms: C3_93  and  O3_109 
REMARK   18  A    between atoms: C4_95  and  O4_111 
REMARK   19  A    between atoms: C5_97  and  C6_99 
REMARK   20  A    between atoms: C6_99  and  O6_114 
REMARK       I    between atoms: C7_102  and  N2_107 
REMARK   21  A    between atoms: C1_117  and  O1_119 
REMARK   22  A    between atoms: O1_119  and  C1'_140 
REMARK   23  A    between atoms: C2_120  and  O2_122 
REMARK   24  A    between atoms: C3_124  and  O3_126 
REMARK   25  A    between atoms: C4_128  and  O4_130 
REMARK   26  A    between atoms: C5_132  and  C6_135 
REMARK   27  A    between atoms: C6_135  and  O6_138 
REMARK   28  A    between atoms: C1'_140  and  C2'_143 
REMARK   29  A    between atoms: C2'_143  and  C3'_146 
REMARK   30  A    between atoms: C3'_146  and  C4'_149 
REMARK   31  A    between atoms: C4'_149  and  C5'_152 
REMARK   32  A    between atoms: C5'_152  and  C6'_155 
REMARK   33  A    between atoms: C6'_155  and  C7'_158 
REMARK   34  A    between atoms: C1_165  and  O1_167 
REMARK   35  A    between atoms: O1_167  and  C1'_188 
REMARK   36  A    between atoms: C2_168  and  O2_170 
REMARK   37  A    between atoms: C3_172  and  O3_174 
REMARK   38  A    between atoms: C4_176  and  O4_178 
REMARK   39  A    between atoms: C5_180  and  C6_183 
REMARK   40  A    between atoms: C6_183  and  O6_186 
REMARK   41  A    between atoms: C1'_188  and  C2'_191 
REMARK   42  A    between atoms: C3'_193  and  C4'_195 
REMARK   43  A    between atoms: C4'_195  and  C5'_198 
REMARK   44  A    between atoms: C5'_198  and  C6'_201 
REMARK   45  A    between atoms: C2_212  and  N2_228 
REMARK   46  A    between atoms: C3_214  and  O3_230 
REMARK   47  A    between atoms: C4_216  and  O4_232 
REMARK   48  A    between atoms: C5_218  and  C6_220 
REMARK   49  A    between atoms: C6_220  and  O6_235 
REMARK       I    between atoms: C7_223  and  N2_228 
REMARK   50  A    between atoms: C2A_247  and  CAA_254 
REMARK   51  A    between atoms: CAA_254  and  CBA_257 
REMARK   52  A    between atoms: CBA_257  and  CGA_260 
REMARK   53  A    between atoms: C3B_265  and  CAB_271 
REMARK   54  A    between atoms: C3C_280  and  CAC_286 
REMARK   55  A    between atoms: C3D_295  and  CAD_301 
REMARK   56  A    between atoms: CAD_301  and  CBD_304 
REMARK   57  A    between atoms: CBD_304  and  CGD_307 
REMARK   58  A    between atoms: C1_318  and  C6_332 
REMARK   59  A    between atoms: C2_319  and  C3_322 
REMARK   60  A    between atoms: C2_319  and  C11_343 
REMARK   61  A    between atoms: C6_332  and  C8_338 
REMARK   62  A    between atoms: C2_353  and  N2_369 
REMARK   63  A    between atoms: C3_355  and  O3_371 
REMARK   64  A    between atoms: C4_357  and  O4_373 
REMARK   65  A    between atoms: C5_359  and  C6_361 
REMARK   66  A    between atoms: C6_361  and  O6_376 
REMARK       I    between atoms: C7_364  and  N2_369 
REMARK   67  A    between atoms: C2_382  and  N2_398 
REMARK   68  A    between atoms: C3_384  and  O3_400 
REMARK   69  A    between atoms: C4_386  and  O4_402 
REMARK   70  A    between atoms: C5_388  and  C6_390 
REMARK   71  A    between atoms: C6_390  and  O6_405 
REMARK       I    between atoms: C7_393  and  N2_398 
REMARK   72  A    between atoms: C2_411  and  N2_427 
REMARK   73  A    between atoms: C3_413  and  O3_429 
REMARK   74  A    between atoms: C4_415  and  O4_431 
REMARK   75  A    between atoms: C5_417  and  C6_419 
REMARK   76  A    between atoms: C6_419  and  O6_434 
REMARK       I    between atoms: C7_422  and  N2_427 
REMARK   77  A    between atoms: C2_440  and  N2_456 
REMARK   78  A    between atoms: C3_442  and  O3_458 
REMARK   79  A    between atoms: C4_444  and  O4_460 
REMARK   80  A    between atoms: C5_446  and  C6_448 
REMARK   81  A    between atoms: C6_448  and  O6_463 
REMARK       I    between atoms: C7_451  and  N2_456 
REMARK   82  A    between atoms: C2_469  and  N2_485 
REMARK   83  A    between atoms: C3_471  and  O3_487 
REMARK   84  A    between atoms: C4_473  and  O4_489 
REMARK   85  A    between atoms: C5_475  and  C6_477 
REMARK   86  A    between atoms: C6_477  and  O6_492 
REMARK       I    between atoms: C7_480  and  N2_485 
REMARK   87  A    between atoms: C1_495  and  O1_497 
REMARK   88  A    between atoms: O1_497  and  C1'_518 
REMARK   89  A    between atoms: C2_498  and  O2_500 
REMARK   90  A    between atoms: C3_502  and  O3_504 
REMARK   91  A    between atoms: C4_506  and  O4_508 
REMARK   92  A    between atoms: C5_510  and  C6_513 
REMARK   93  A    between atoms: C6_513  and  O6_516 
REMARK   94  A    between atoms: C1'_518  and  C2'_521 
REMARK   95  A    between atoms: C2'_521  and  C3'_524 
REMARK   96  A    between atoms: C3'_524  and  C4'_527 
REMARK   97  A    between atoms: C4'_527  and  C5'_530 
REMARK   98  A    between atoms: C5'_530  and  C6'_533 
REMARK   99  A    between atoms: C6'_533  and  C7'_536 
REMARK  100  A    between atoms: C2A_552  and  CAA_559 
REMARK  101  A    between atoms: CAA_559  and  CBA_562 
REMARK  102  A    between atoms: CBA_562  and  CGA_565 
REMARK  103  A    between atoms: C3B_570  and  CAB_576 
REMARK  104  A    between atoms: C3C_585  and  CAC_591 
REMARK  105  A    between atoms: C3D_600  and  CAD_606 
REMARK  106  A    between atoms: CAD_606  and  CBD_609 
REMARK  107  A    between atoms: CBD_609  and  CGD_612 
REMARK  108  A    between atoms: C1_623  and  C6_637 
REMARK  109  A    between atoms: C2_624  and  C3_627 
REMARK  110  A    between atoms: C2_624  and  C11_648 
REMARK  111  A    between atoms: C6_637  and  C8_643 
ROOT
HETATM    1  C1  NAG A 661       7.735   9.307  27.257  1.00 56.58     0.196 C 
HETATM    2  C2  NAG A 661       8.122  10.093  26.004  1.00 57.13     0.139 C 
HETATM    3  C3  NAG A 661       7.926   9.182  24.772  1.00 58.75     0.174 C 
HETATM    4  C4  NAG A 661       8.794   7.900  24.898  1.00 59.05     0.180 C 
HETATM    5  C5  NAG A 661       8.500   7.190  26.256  1.00 58.18     0.176 C 
HETATM    6  O5  NAG A 661       8.581   8.127  27.376  1.00 56.64    -0.379 OA
ENDROOT
BRANCH   2   7
HETATM    7  N2  NAG A 661       7.303  11.287  25.907  1.00 56.54    -0.352 N 
HETATM    8  C7  NAG A 661       7.693  12.315  25.144  1.00 56.74     0.214 C 
HETATM    9  C8  NAG A 661       6.604  13.177  24.524  1.00 56.94     0.117 C 
HETATM   10  O7  NAG A 661       8.885  12.584  24.928  1.00 55.51    -0.274 OA
HETATM   11  H2  NAG A 661       6.426  11.343  26.422  1.00  0.00     0.163 HD
ENDBRANCH   2   7
BRANCH   3  12
HETATM   12  O3  NAG A 661       8.276   9.888  23.590  1.00 59.03    -0.391 OA
HETATM   13  H3  NAG A 661       9.086   9.541  23.235  1.00  0.00     0.210 HD
ENDBRANCH   3  12
BRANCH   5  14
HETATM   14  C6  NAG A 661       9.461   6.063  26.588  1.00 57.73     0.198 C 
BRANCH  14  15
HETATM   15  O6  NAG A 661       9.209   4.912  25.791  1.00 57.21    -0.398 OA
HETATM   16  H6  NAG A 661      10.018   4.513  25.491  1.00  0.00     0.209 HD
ENDBRANCH  14  15
ENDBRANCH   5  14
BRANCH   4  17
HETATM   17  O4  NAG A 661       8.504   7.018  23.811  1.00 60.81    -0.390 OA
HETATM   18  H4  NAG A 661       9.202   6.380  23.725  1.00  0.00     0.210 HD
ENDBRANCH   4  17
TORSDOF 111
ENDMDL
MODEL 3
REMARK VINA RESULT:      -5.1      2.138      5.061
REMARK WARNING: 32 MAX_TORS EXCEEDED!!!
REMARK  111 active torsions:
REMARK  status: ('A' for Active; 'I' for Inactive)
REMARK    1  A    between atoms: C2_2  and  N2_7 
REMARK    2  A    between atoms: C3_3  and  O3_12 
REMARK    3  A    between atoms: C4_4  and  O4_17 
REMARK    4  A    between atoms: C5_5  and  C6_14 
REMARK    5  A    between atoms: C6_14  and  O6_15 
REMARK       I    between atoms: C7_8  and  N2_7 
REMARK    6  A    between atoms: C2_33  and  N2_49 
REMARK    7  A    between atoms: C3_35  and  O3_51 
REMARK    8  A    between atoms: C4_37  and  O4_53 
REMARK    9  A    between atoms: C5_39  and  C6_41 
REMARK   10  A    between atoms: C6_41  and  O6_56 
REMARK       I    between atoms: C7_44  and  N2_49 
REMARK   11  A    between atoms: C2_62  and  N2_78 
REMARK   12  A    between atoms: C3_64  and  O3_80 
REMARK   13  A    between atoms: C4_66  and  O4_82 
REMARK   14  A    between atoms: C5_68  and  C6_70 
REMARK   15  A    between atoms: C6_70  and  O6_85 
REMARK       I    between atoms: C7_73  and  N2_78 
REMARK   16  A    between atoms: C2_91  and  N2_107 
REMARK   17  A    between atoms: C3_93  and  O3_109 
REMARK   18  A    between atoms: C4_95  and  O4_111 
REMARK   19  A    between atoms: C5_97  and  C6_99 
REMARK   20  A    between atoms: C6_99  and  O6_114 
REMARK       I    between atoms: C7_102  and  N2_107 
REMARK   21  A    between atoms: C1_117  and  O1_119 
REMARK   22  A    between atoms: O1_119  and  C1'_140 
REMARK   23  A    between atoms: C2_120  and  O2_122 
REMARK   24  A    between atoms: C3_124  and  O3_126 
REMARK   25  A    between atoms: C4_128  and  O4_130 
REMARK   26  A    between atoms: C5_132  and  C6_135 
REMARK   27  A    between atoms: C6_135  and  O6_138 
REMARK   28  A    between atoms: C1'_140  and  C2'_143 
REMARK   29  A    between atoms: C2'_143  and  C3'_146 
REMARK   30  A    between atoms: C3'_146  and  C4'_149 
REMARK   31  A    between atoms: C4'_149  and  C5'_152 
REMARK   32  A    between atoms: C5'_152  and  C6'_155 
REMARK   33  A    between atoms: C6'_155  and  C7'_158 
REMARK   34  A    between atoms: C1_165  and  O1_167 
REMARK   35  A    between atoms: O1_167  and  C1'_188 
REMARK   36  A    between atoms: C2_168  and  O2_170 
REMARK   37  A    between atoms: C3_172  and  O3_174 
REMARK   38  A    between atoms: C4_176  and  O4_178 
REMARK   39  A    between atoms: C5_180  and  C6_183 
REMARK   40  A    between atoms: C6_183  and  O6_186 
REMARK   41  A    between atoms: C1'_188  and  C2'_191 
REMARK   42  A    between atoms: C3'_193  and  C4'_195 
REMARK   43  A    between atoms: C4'_195  and  C5'_198 
REMARK   44  A    between atoms: C5'_198  and  C6'_201 
REMARK   45  A    between atoms: C2_212  and  N2_228 
REMARK   46  A    between atoms: C3_214  and  O3_230 
REMARK   47  A    between atoms: C4_216  and  O4_232 
REMARK   48  A    between atoms: C5_218  and  C6_220 
REMARK   49  A    between atoms: C6_220  and  O6_235 
REMARK       I    between atoms: C7_223  and  N2_228 
REMARK   50  A    between atoms: C2A_247  and  CAA_254 
REMARK   51  A    between atoms: CAA_254  and  CBA_257 
REMARK   52  A    between atoms: CBA_257  and  CGA_260 
REMARK   53  A    between atoms: C3B_265  and  CAB_271 
REMARK   54  A    between atoms: C3C_280  and  CAC_286 
REMARK   55  A    between atoms: C3D_295  and  CAD_301 
REMARK   56  A    between atoms: CAD_301  and  CBD_304 
REMARK   57  A    between atoms: CBD_304  and  CGD_307 
REMARK   58  A    between atoms: C1_318  and  C6_332 
REMARK   59  A    between atoms: C2_319  and  C3_322 
REMARK   60  A    between atoms: C2_319  and  C11_343 
REMARK   61  A    between atoms: C6_332  and  C8_338 
REMARK   62  A    between atoms: C2_353  and  N2_369 
REMARK   63  A    between atoms: C3_355  and  O3_371 
REMARK   64  A    between atoms: C4_357  and  O4_373 
REMARK   65  A    between atoms: C5_359  and  C6_361 
REMARK   66  A    between atoms: C6_361  and  O6_376 
REMARK       I    between atoms: C7_364  and  N2_369 
REMARK   67  A    between atoms: C2_382  and  N2_398 
REMARK   68  A    between atoms: C3_384  and  O3_400 
REMARK   69  A    between atoms: C4_386  and  O4_402 
REMARK   70  A    between atoms: C5_388  and  C6_390 
REMARK   71  A    between atoms: C6_390  and  O6_405 
REMARK       I    between atoms: C7_393  and  N2_398 
REMARK   72  A    between atoms: C2_411  and  N2_427 
REMARK   73  A    between atoms: C3_413  and  O3_429 
REMARK   74  A    between atoms: C4_415  and  O4_431 
REMARK   75  A    between atoms: C5_417  and  C6_419 
REMARK   76  A    between atoms: C6_419  and  O6_434 
REMARK       I    between atoms: C7_422  and  N2_427 
REMARK   77  A    between atoms: C2_440  and  N2_456 
REMARK   78  A    between atoms: C3_442  and  O3_458 
REMARK   79  A    between atoms: C4_444  and  O4_460 
REMARK   80  A    between atoms: C5_446  and  C6_448 
REMARK   81  A    between atoms: C6_448  and  O6_463 
REMARK       I    between atoms: C7_451  and  N2_456 
REMARK   82  A    between atoms: C2_469  and  N2_485 
REMARK   83  A    between atoms: C3_471  and  O3_487 
REMARK   84  A    between atoms: C4_473  and  O4_489 
REMARK   85  A    between atoms: C5_475  and  C6_477 
REMARK   86  A    between atoms: C6_477  and  O6_492 
REMARK       I    between atoms: C7_480  and  N2_485 
REMARK   87  A    between atoms: C1_495  and  O1_497 
REMARK   88  A    between atoms: O1_497  and  C1'_518 
REMARK   89  A    between atoms: C2_498  and  O2_500 
REMARK   90  A    between atoms: C3_502  and  O3_504 
REMARK   91  A    between atoms: C4_506  and  O4_508 
REMARK   92  A    between atoms: C5_510  and  C6_513 
REMARK   93  A    between atoms: C6_513  and  O6_516 
REMARK   94  A    between atoms: C1'_518  and  C2'_521 
REMARK   95  A    between atoms: C2'_521  and  C3'_524 
REMARK   96  A    between atoms: C3'_524  and  C4'_527 
REMARK   97  A    between atoms: C4'_527  and  C5'_530 
REMARK   98  A    between atoms: C5'_530  and  C6'_533 
REMARK   99  A    between atoms: C6'_533  and  C7'_536 
REMARK  100  A    between atoms: C2A_552  and  CAA_559 
REMARK  101  A    between atoms: CAA_559  and  CBA_562 
REMARK  102  A    between atoms: CBA_562  and  CGA_565 
REMARK  103  A    between atoms: C3B_570  and  CAB_576 
REMARK  104  A    between atoms: C3C_585  and  CAC_591 
REMARK  105  A    between atoms: C3D_600  and  CAD_606 
REMARK  106  A    between atoms: CAD_606  and  CBD_609 
REMARK  107  A    between atoms: CBD_609  and  CGD_612 
REMARK  108  A    between atoms: C1_623  and  C6_637 
REMARK  109  A    between atoms: C2_624  and  C3_627 
REMARK  110  A    between atoms: C2_624  and  C11_648 
REMARK  111  A    between atoms: C6_637  and  C8_643 
ROOT
HETATM    1  C1  NAG A 661       7.805  12.040  23.059  1.00 56.58     0.196 C 
HETATM    2  C2  NAG A 661       6.567  12.825  22.624  1.00 57.13     0.139 C 
HETATM    3  C3  NAG A 661       6.394  14.035  23.567  1.00 58.75     0.174 C 
HETATM    4  C4  NAG A 661       6.246  13.564  25.039  1.00 59.05     0.180 C 
HETATM    5  C5  NAG A 661       7.439  12.635  25.423  1.00 58.18     0.176 C 
HETATM    6  O5  NAG A 661       7.633  11.578  24.431  1.00 56.64    -0.379 OA
ENDROOT
BRANCH   2   7
HETATM    7  N2  NAG A 661       6.723  13.253  21.246  1.00 56.54    -0.352 N 
HETATM    8  C7  NAG A 661       6.120  12.585  20.256  1.00 56.74     0.214 C 
HETATM    9  C8  NAG A 661       5.724  13.376  19.019  1.00 56.94     0.117 C 
HETATM   10  O7  NAG A 661       5.877  11.370  20.310  1.00 55.51    -0.274 OA
HETATM   11  H2  NAG A 661       7.296  14.069  21.031  1.00  0.00     0.163 HD
ENDBRANCH   2   7
BRANCH   3  12
HETATM   12  O3  NAG A 661       5.251  14.787  23.183  1.00 59.03    -0.391 OA
HETATM   13  H3  NAG A 661       5.167  15.553  23.738  1.00  0.00     0.210 HD
ENDBRANCH   3  12
BRANCH   5  14
HETATM   14  C6  NAG A 661       7.273  11.927  26.755  1.00 57.73     0.198 C 
BRANCH  14  15
HETATM   15  O6  NAG A 661       7.574  12.791  27.845  1.00 57.21    -0.398 OA
HETATM   16  H6  NAG A 661       6.859  13.392  28.021  1.00  0.00     0.209 HD
ENDBRANCH  14  15
ENDBRANCH   5  14
BRANCH   4  17
HETATM   17  O4  NAG A 661       6.212  14.701  25.904  1.00 60.81    -0.390 OA
HETATM   18  H4  NAG A 661       5.688  15.386  25.507  1.00  0.00     0.210 HD
ENDBRANCH   4  17
TORSDOF 111
ENDMDL
MODEL 4
REMARK VINA RESULT:      -5.1      1.867      5.531
REMARK WARNING: 32 MAX_TORS EXCEEDED!!!
REMARK  111 active torsions:
REMARK  status: ('A' for Active; 'I' for Inactive)
REMARK    1  A    between atoms: C2_2  and  N2_7 
REMARK    2  A    between atoms: C3_3  and  O3_12 
REMARK    3  A    between atoms: C4_4  and  O4_17 
REMARK    4  A    between atoms: C5_5  and  C6_14 
REMARK    5  A    between atoms: C6_14  and  O6_15 
REMARK       I    between atoms: C7_8  and  N2_7 
REMARK    6  A    between atoms: C2_33  and  N2_49 
REMARK    7  A    between atoms: C3_35  and  O3_51 
REMARK    8  A    between atoms: C4_37  and  O4_53 
REMARK    9  A    between atoms: C5_39  and  C6_41 
REMARK   10  A    between atoms: C6_41  and  O6_56 
REMARK       I    between atoms: C7_44  and  N2_49 
REMARK   11  A    between atoms: C2_62  and  N2_78 
REMARK   12  A    between atoms: C3_64  and  O3_80 
REMARK   13  A    between atoms: C4_66  and  O4_82 
REMARK   14  A    between atoms: C5_68  and  C6_70 
REMARK   15  A    between atoms: C6_70  and  O6_85 
REMARK       I    between atoms: C7_73  and  N2_78 
REMARK   16  A    between atoms: C2_91  and  N2_107 
REMARK   17  A    between atoms: C3_93  and  O3_109 
REMARK   18  A    between atoms: C4_95  and  O4_111 
REMARK   19  A    between atoms: C5_97  and  C6_99 
REMARK   20  A    between atoms: C6_99  and  O6_114 
REMARK       I    between atoms: C7_102  and  N2_107 
REMARK   21  A    between atoms: C1_117  and  O1_119 
REMARK   22  A    between atoms: O1_119  and  C1'_140 
REMARK   23  A    between atoms: C2_120  and  O2_122 
REMARK   24  A    between atoms: C3_124  and  O3_126 
REMARK   25  A    between atoms: C4_128  and  O4_130 
REMARK   26  A    between atoms: C5_132  and  C6_135 
REMARK   27  A    between atoms: C6_135  and  O6_138 
REMARK   28  A    between atoms: C1'_140  and  C2'_143 
REMARK   29  A    between atoms: C2'_143  and  C3'_146 
REMARK   30  A    between atoms: C3'_146  and  C4'_149 
REMARK   31  A    between atoms: C4'_149  and  C5'_152 
REMARK   32  A    between atoms: C5'_152  and  C6'_155 
REMARK   33  A    between atoms: C6'_155  and  C7'_158 
REMARK   34  A    between atoms: C1_165  and  O1_167 
REMARK   35  A    between atoms: O1_167  and  C1'_188 
REMARK   36  A    between atoms: C2_168  and  O2_170 
REMARK   37  A    between atoms: C3_172  and  O3_174 
REMARK   38  A    between atoms: C4_176  and  O4_178 
REMARK   39  A    between atoms: C5_180  and  C6_183 
REMARK   40  A    between atoms: C6_183  and  O6_186 
REMARK   41  A    between atoms: C1'_188  and  C2'_191 
REMARK   42  A    between atoms: C3'_193  and  C4'_195 
REMARK   43  A    between atoms: C4'_195  and  C5'_198 
REMARK   44  A    between atoms: C5'_198  and  C6'_201 
REMARK   45  A    between atoms: C2_212  and  N2_228 
REMARK   46  A    between atoms: C3_214  and  O3_230 
REMARK   47  A    between atoms: C4_216  and  O4_232 
REMARK   48  A    between atoms: C5_218  and  C6_220 
REMARK   49  A    between atoms: C6_220  and  O6_235 
REMARK       I    between atoms: C7_223  and  N2_228 
REMARK   50  A    between atoms: C2A_247  and  CAA_254 
REMARK   51  A    between atoms: CAA_254  and  CBA_257 
REMARK   52  A    between atoms: CBA_257  and  CGA_260 
REMARK   53  A    between atoms: C3B_265  and  CAB_271 
REMARK   54  A    between atoms: C3C_280  and  CAC_286 
REMARK   55  A    between atoms: C3D_295  and  CAD_301 
REMARK   56  A    between atoms: CAD_301  and  CBD_304 
REMARK   57  A    between atoms: CBD_304  and  CGD_307 
REMARK   58  A    between atoms: C1_318  and  C6_332 
REMARK   59  A    between atoms: C2_319  and  C3_322 
REMARK   60  A    between atoms: C2_319  and  C11_343 
REMARK   61  A    between atoms: C6_332  and  C8_338 
REMARK   62  A    between atoms: C2_353  and  N2_369 
REMARK   63  A    between atoms: C3_355  and  O3_371 
REMARK   64  A    between atoms: C4_357  and  O4_373 
REMARK   65  A    between atoms: C5_359  and  C6_361 
REMARK   66  A    between atoms: C6_361  and  O6_376 
REMARK       I    between atoms: C7_364  and  N2_369 
REMARK   67  A    between atoms: C2_382  and  N2_398 
REMARK   68  A    between atoms: C3_384  and  O3_400 
REMARK   69  A    between atoms: C4_386  and  O4_402 
REMARK   70  A    between atoms: C5_388  and  C6_390 
REMARK   71  A    between atoms: C6_390  and  O6_405 
REMARK       I    between atoms: C7_393  and  N2_398 
REMARK   72  A    between atoms: C2_411  and  N2_427 
REMARK   73  A    between atoms: C3_413  and  O3_429 
REMARK   74  A    between atoms: C4_415  and  O4_431 
REMARK   75  A    between atoms: C5_417  and  C6_419 
REMARK   76  A    between atoms: C6_419  and  O6_434 
REMARK       I    between atoms: C7_422  and  N2_427 
REMARK   77  A    between atoms: C2_440  and  N2_456 
REMARK   78  A    between atoms: C3_442  and  O3_458 
REMARK   79  A    between atoms: C4_444  and  O4_460 
REMARK   80  A    between atoms: C5_446  and  C6_448 
REMARK   81  A    between atoms: C6_448  and  O6_463 
REMARK       I    between atoms: C7_451  and  N2_456 
REMARK   82  A    between atoms: C2_469  and  N2_485 
REMARK   83  A    between atoms: C3_471  and  O3_487 
REMARK   84  A    between atoms: C4_473  and  O4_489 
REMARK   85  A    between atoms: C5_475  and  C6_477 
REMARK   86  A    between atoms: C6_477  and  O6_492 
REMARK       I    between atoms: C7_480  and  N2_485 
REMARK   87  A    between atoms: C1_495  and  O1_497 
REMARK   88  A    between atoms: O1_497  and  C1'_518 
REMARK   89  A    between atoms: C2_498  and  O2_500 
REMARK   90  A    between atoms: C3_502  and  O3_504 
REMARK   91  A    between atoms: C4_506  and  O4_508 
REMARK   92  A    between atoms: C5_510  and  C6_513 
REMARK   93  A    between atoms: C6_513  and  O6_516 
REMARK   94  A    between atoms: C1'_518  and  C2'_521 
REMARK   95  A    between atoms: C2'_521  and  C3'_524 
REMARK   96  A    between atoms: C3'_524  and  C4'_527 
REMARK   97  A    between atoms: C4'_527  and  C5'_530 
REMARK   98  A    between atoms: C5'_530  and  C6'_533 
REMARK   99  A    between atoms: C6'_533  and  C7'_536 
REMARK  100  A    between atoms: C2A_552  and  CAA_559 
REMARK  101  A    between atoms: CAA_559  and  CBA_562 
REMARK  102  A    between atoms: CBA_562  and  CGA_565 
REMARK  103  A    between atoms: C3B_570  and  CAB_576 
REMARK  104  A    between atoms: C3C_585  and  CAC_591 
REMARK  105  A    between atoms: C3D_600  and  CAD_606 
REMARK  106  A    between atoms: CAD_606  and  CBD_609 
REMARK  107  A    between atoms: CBD_609  and  CGD_612 
REMARK  108  A    between atoms: C1_623  and  C6_637 
REMARK  109  A    between atoms: C2_624  and  C3_627 
REMARK  110  A    between atoms: C2_624  and  C11_648 
REMARK  111  A    between atoms: C6_637  and  C8_643 
ROOT
HETATM    1  C1  NAG A 661       5.563  14.575  23.493  1.00 56.58     0.196 C 
HETATM    2  C2  NAG A 661       6.607  13.510  23.156  1.00 57.13     0.139 C 
HETATM    3  C3  NAG A 661       6.892  12.681  24.428  1.00 58.75     0.174 C 
HETATM    4  C4  NAG A 661       7.402  13.596  25.574  1.00 59.05     0.180 C 
HETATM    5  C5  NAG A 661       6.400  14.770  25.802  1.00 58.18     0.176 C 
HETATM    6  O5  NAG A 661       6.072  15.443  24.546  1.00 56.64    -0.379 OA
ENDROOT
BRANCH   2   7
HETATM    7  N2  NAG A 661       6.114  12.667  22.082  1.00 56.54    -0.352 N 
HETATM    8  C7  NAG A 661       6.909  12.343  21.056  1.00 56.74     0.214 C 
HETATM    9  C8  NAG A 661       6.659  11.007  20.374  1.00 56.94     0.117 C 
HETATM   10  O7  NAG A 661       7.824  13.077  20.651  1.00 55.51    -0.274 OA
HETATM   11  H2  NAG A 661       5.156  12.321  22.110  1.00  0.00     0.163 HD
ENDBRANCH   2   7
BRANCH   3  12
HETATM   12  O3  NAG A 661       7.859  11.678  24.144  1.00 59.03    -0.391 OA
HETATM   13  H3  NAG A 661       8.225  11.821  23.278  1.00  0.00     0.210 HD
ENDBRANCH   3  12
BRANCH   5  14
HETATM   14  C6  NAG A 661       6.915  15.854  26.731  1.00 57.73     0.198 C 
BRANCH  14  15
HETATM   15  O6  NAG A 661       7.067  15.372  28.061  1.00 57.21    -0.398 OA
HETATM   16  H6  NAG A 661       6.490  14.636  28.233  1.00  0.00     0.209 HD
ENDBRANCH  14  15
ENDBRANCH   5  14
BRANCH   4  17
HETATM   17  O4  NAG A 661       7.540  12.830  26.772  1.00 60.81    -0.390 OA
HETATM   18  H4  NAG A 661       8.440  12.869  27.073  1.00  0.00     0.210 HD
ENDBRANCH   4  17
TORSDOF 111
ENDMDL
MODEL 5
REMARK VINA RESULT:      -5.1      5.184      5.961
REMARK WARNING: 32 MAX_TORS EXCEEDED!!!
REMARK  111 active torsions:
REMARK  status: ('A' for Active; 'I' for Inactive)
REMARK    1  A    between atoms: C2_2  and  N2_7 
REMARK    2  A    between atoms: C3_3  and  O3_12 
REMARK    3  A    between atoms: C4_4  and  O4_17 
REMARK    4  A    between atoms: C5_5  and  C6_14 
REMARK    5  A    between atoms: C6_14  and  O6_15 
REMARK       I    between atoms: C7_8  and  N2_7 
REMARK    6  A    between atoms: C2_33  and  N2_49 
REMARK    7  A    between atoms: C3_35  and  O3_51 
REMARK    8  A    between atoms: C4_37  and  O4_53 
REMARK    9  A    between atoms: C5_39  and  C6_41 
REMARK   10  A    between atoms: C6_41  and  O6_56 
REMARK       I    between atoms: C7_44  and  N2_49 
REMARK   11  A    between atoms: C2_62  and  N2_78 
REMARK   12  A    between atoms: C3_64  and  O3_80 
REMARK   13  A    between atoms: C4_66  and  O4_82 
REMARK   14  A    between atoms: C5_68  and  C6_70 
REMARK   15  A    between atoms: C6_70  and  O6_85 
REMARK       I    between atoms: C7_73  and  N2_78 
REMARK   16  A    between atoms: C2_91  and  N2_107 
REMARK   17  A    between atoms: C3_93  and  O3_109 
REMARK   18  A    between atoms: C4_95  and  O4_111 
REMARK   19  A    between atoms: C5_97  and  C6_99 
REMARK   20  A    between atoms: C6_99  and  O6_114 
REMARK       I    between atoms: C7_102  and  N2_107 
REMARK   21  A    between atoms: C1_117  and  O1_119 
REMARK   22  A    between atoms: O1_119  and  C1'_140 
REMARK   23  A    between atoms: C2_120  and  O2_122 
REMARK   24  A    between atoms: C3_124  and  O3_126 
REMARK   25  A    between atoms: C4_128  and  O4_130 
REMARK   26  A    between atoms: C5_132  and  C6_135 
REMARK   27  A    between atoms: C6_135  and  O6_138 
REMARK   28  A    between atoms: C1'_140  and  C2'_143 
REMARK   29  A    between atoms: C2'_143  and  C3'_146 
REMARK   30  A    between atoms: C3'_146  and  C4'_149 
REMARK   31  A    between atoms: C4'_149  and  C5'_152 
REMARK   32  A    between atoms: C5'_152  and  C6'_155 
REMARK   33  A    between atoms: C6'_155  and  C7'_158 
REMARK   34  A    between atoms: C1_165  and  O1_167 
REMARK   35  A    between atoms: O1_167  and  C1'_188 
REMARK   36  A    between atoms: C2_168  and  O2_170 
REMARK   37  A    between atoms: C3_172  and  O3_174 
REMARK   38  A    between atoms: C4_176  and  O4_178 
REMARK   39  A    between atoms: C5_180  and  C6_183 
REMARK   40  A    between atoms: C6_183  and  O6_186 
REMARK   41  A    between atoms: C1'_188  and  C2'_191 
REMARK   42  A    between atoms: C3'_193  and  C4'_195 
REMARK   43  A    between atoms: C4'_195  and  C5'_198 
REMARK   44  A    between atoms: C5'_198  and  C6'_201 
REMARK   45  A    between atoms: C2_212  and  N2_228 
REMARK   46  A    between atoms: C3_214  and  O3_230 
REMARK   47  A    between atoms: C4_216  and  O4_232 
REMARK   48  A    between atoms: C5_218  and  C6_220 
REMARK   49  A    between atoms: C6_220  and  O6_235 
REMARK       I    between atoms: C7_223  and  N2_228 
REMARK   50  A    between atoms: C2A_247  and  CAA_254 
REMARK   51  A    between atoms: CAA_254  and  CBA_257 
REMARK   52  A    between atoms: CBA_257  and  CGA_260 
REMARK   53  A    between atoms: C3B_265  and  CAB_271 
REMARK   54  A    between atoms: C3C_280  and  CAC_286 
REMARK   55  A    between atoms: C3D_295  and  CAD_301 
REMARK   56  A    between atoms: CAD_301  and  CBD_304 
REMARK   57  A    between atoms: CBD_304  and  CGD_307 
REMARK   58  A    between atoms: C1_318  and  C6_332 
REMARK   59  A    between atoms: C2_319  and  C3_322 
REMARK   60  A    between atoms: C2_319  and  C11_343 
REMARK   61  A    between atoms: C6_332  and  C8_338 
REMARK   62  A    between atoms: C2_353  and  N2_369 
REMARK   63  A    between atoms: C3_355  and  O3_371 
REMARK   64  A    between atoms: C4_357  and  O4_373 
REMARK   65  A    between atoms: C5_359  and  C6_361 
REMARK   66  A    between atoms: C6_361  and  O6_376 
REMARK       I    between atoms: C7_364  and  N2_369 
REMARK   67  A    between atoms: C2_382  and  N2_398 
REMARK   68  A    between atoms: C3_384  and  O3_400 
REMARK   69  A    between atoms: C4_386  and  O4_402 
REMARK   70  A    between atoms: C5_388  and  C6_390 
REMARK   71  A    between atoms: C6_390  and  O6_405 
REMARK       I    between atoms: C7_393  and  N2_398 
REMARK   72  A    between atoms: C2_411  and  N2_427 
REMARK   73  A    between atoms: C3_413  and  O3_429 
REMARK   74  A    between atoms: C4_415  and  O4_431 
REMARK   75  A    between atoms: C5_417  and  C6_419 
REMARK   76  A    between atoms: C6_419  and  O6_434 
REMARK       I    between atoms: C7_422  and  N2_427 
REMARK   77  A    between atoms: C2_440  and  N2_456 
REMARK   78  A    between atoms: C3_442  and  O3_458 
REMARK   79  A    between atoms: C4_444  and  O4_460 
REMARK   80  A    between atoms: C5_446  and  C6_448 
REMARK   81  A    between atoms: C6_448  and  O6_463 
REMARK       I    between atoms: C7_451  and  N2_456 
REMARK   82  A    between atoms: C2_469  and  N2_485 
REMARK   83  A    between atoms: C3_471  and  O3_487 
REMARK   84  A    between atoms: C4_473  and  O4_489 
REMARK   85  A    between atoms: C5_475  and  C6_477 
REMARK   86  A    between atoms: C6_477  and  O6_492 
REMARK       I    between atoms: C7_480  and  N2_485 
REMARK   87  A    between atoms: C1_495  and  O1_497 
REMARK   88  A    between atoms: O1_497  and  C1'_518 
REMARK   89  A    between atoms: C2_498  and  O2_500 
REMARK   90  A    between atoms: C3_502  and  O3_504 
REMARK   91  A    between atoms: C4_506  and  O4_508 
REMARK   92  A    between atoms: C5_510  and  C6_513 
REMARK   93  A    between atoms: C6_513  and  O6_516 
REMARK   94  A    between atoms: C1'_518  and  C2'_521 
REMARK   95  A    between atoms: C2'_521  and  C3'_524 
REMARK   96  A    between atoms: C3'_524  and  C4'_527 
REMARK   97  A    between atoms: C4'_527  and  C5'_530 
REMARK   98  A    between atoms: C5'_530  and  C6'_533 
REMARK   99  A    between atoms: C6'_533  and  C7'_536 
REMARK  100  A    between atoms: C2A_552  and  CAA_559 
REMARK  101  A    between atoms: CAA_559  and  CBA_562 
REMARK  102  A    between atoms: CBA_562  and  CGA_565 
REMARK  103  A    between atoms: C3B_570  and  CAB_576 
REMARK  104  A    between atoms: C3C_585  and  CAC_591 
REMARK  105  A    between atoms: C3D_600  and  CAD_606 
REMARK  106  A    between atoms: CAD_606  and  CBD_609 
REMARK  107  A    between atoms: CBD_609  and  CGD_612 
REMARK  108  A    between atoms: C1_623  and  C6_637 
REMARK  109  A    between atoms: C2_624  and  C3_627 
REMARK  110  A    between atoms: C2_624  and  C11_648 
REMARK  111  A    between atoms: C6_637  and  C8_643 
ROOT
HETATM    1  C1  NAG A 661       9.025   7.993  27.449  1.00 56.58     0.196 C 
HETATM    2  C2  NAG A 661       9.066   9.446  27.922  1.00 57.13     0.139 C 
HETATM    3  C3  NAG A 661       8.177  10.293  26.985  1.00 58.75     0.174 C 
HETATM    4  C4  NAG A 661       8.674  10.187  25.517  1.00 59.05     0.180 C 
HETATM    5  C5  NAG A 661       8.777   8.688  25.098  1.00 58.18     0.176 C 
HETATM    6  O5  NAG A 661       9.526   7.908  26.083  1.00 56.64    -0.379 OA
ENDROOT
BRANCH   2   7
HETATM    7  N2  NAG A 661       8.601   9.524  29.295  1.00 56.54    -0.352 N 
HETATM    8  C7  NAG A 661       9.476   9.653  30.299  1.00 56.74     0.214 C 
HETATM    9  C8  NAG A 661       9.007  10.394  31.542  1.00 56.94     0.117 C 
HETATM   10  O7  NAG A 661      10.630   9.201  30.254  1.00 55.51    -0.274 OA
HETATM   11  H2  NAG A 661       7.603   9.480  29.495  1.00  0.00     0.163 HD
ENDBRANCH   2   7
BRANCH   3  12
HETATM   12  O3  NAG A 661       8.193  11.651  27.403  1.00 59.03    -0.391 OA
HETATM   13  H3  NAG A 661       8.024  12.219  26.660  1.00  0.00     0.210 HD
ENDBRANCH   3  12
BRANCH   5  14
HETATM   14  C6  NAG A 661       9.477   8.460  23.770  1.00 57.73     0.198 C 
BRANCH  14  15
HETATM   15  O6  NAG A 661       8.565   8.537  22.681  1.00 57.21    -0.398 OA
HETATM   16  H6  NAG A 661       8.308   7.674  22.380  1.00  0.00     0.209 HD
ENDBRANCH  14  15
ENDBRANCH   5  14
BRANCH   4  17
HETATM   17  O4  NAG A 661       7.767  10.876  24.654  1.00 60.81    -0.390 OA
HETATM   18  H4  NAG A 661       8.257  11.378  24.014  1.00  0.00     0.210 HD
ENDBRANCH   4  17
TORSDOF 111
ENDMDL
MODEL 6
REMARK VINA RESULT:      -5.1      4.865      6.984
REMARK WARNING: 32 MAX_TORS EXCEEDED!!!
REMARK  111 active torsions:
REMARK  status: ('A' for Active; 'I' for Inactive)
REMARK    1  A    between atoms: C2_2  and  N2_7 
REMARK    2  A    between atoms: C3_3  and  O3_12 
REMARK    3  A    between atoms: C4_4  and  O4_17 
REMARK    4  A    between atoms: C5_5  and  C6_14 
REMARK    5  A    between atoms: C6_14  and  O6_15 
REMARK       I    between atoms: C7_8  and  N2_7 
REMARK    6  A    between atoms: C2_33  and  N2_49 
REMARK    7  A    between atoms: C3_35  and  O3_51 
REMARK    8  A    between atoms: C4_37  and  O4_53 
REMARK    9  A    between atoms: C5_39  and  C6_41 
REMARK   10  A    between atoms: C6_41  and  O6_56 
REMARK       I    between atoms: C7_44  and  N2_49 
REMARK   11  A    between atoms: C2_62  and  N2_78 
REMARK   12  A    between atoms: C3_64  and  O3_80 
REMARK   13  A    between atoms: C4_66  and  O4_82 
REMARK   14  A    between atoms: C5_68  and  C6_70 
REMARK   15  A    between atoms: C6_70  and  O6_85 
REMARK       I    between atoms: C7_73  and  N2_78 
REMARK   16  A    between atoms: C2_91  and  N2_107 
REMARK   17  A    between atoms: C3_93  and  O3_109 
REMARK   18  A    between atoms: C4_95  and  O4_111 
REMARK   19  A    between atoms: C5_97  and  C6_99 
REMARK   20  A    between atoms: C6_99  and  O6_114 
REMARK       I    between atoms: C7_102  and  N2_107 
REMARK   21  A    between atoms: C1_117  and  O1_119 
REMARK   22  A    between atoms: O1_119  and  C1'_140 
REMARK   23  A    between atoms: C2_120  and  O2_122 
REMARK   24  A    between atoms: C3_124  and  O3_126 
REMARK   25  A    between atoms: C4_128  and  O4_130 
REMARK   26  A    between atoms: C5_132  and  C6_135 
REMARK   27  A    between atoms: C6_135  and  O6_138 
REMARK   28  A    between atoms: C1'_140  and  C2'_143 
REMARK   29  A    between atoms: C2'_143  and  C3'_146 
REMARK   30  A    between atoms: C3'_146  and  C4'_149 
REMARK   31  A    between atoms: C4'_149  and  C5'_152 
REMARK   32  A    between atoms: C5'_152  and  C6'_155 
REMARK   33  A    between atoms: C6'_155  and  C7'_158 
REMARK   34  A    between atoms: C1_165  and  O1_167 
REMARK   35  A    between atoms: O1_167  and  C1'_188 
REMARK   36  A    between atoms: C2_168  and  O2_170 
REMARK   37  A    between atoms: C3_172  and  O3_174 
REMARK   38  A    between atoms: C4_176  and  O4_178 
REMARK   39  A    between atoms: C5_180  and  C6_183 
REMARK   40  A    between atoms: C6_183  and  O6_186 
REMARK   41  A    between atoms: C1'_188  and  C2'_191 
REMARK   42  A    between atoms: C3'_193  and  C4'_195 
REMARK   43  A    between atoms: C4'_195  and  C5'_198 
REMARK   44  A    between atoms: C5'_198  and  C6'_201 
REMARK   45  A    between atoms: C2_212  and  N2_228 
REMARK   46  A    between atoms: C3_214  and  O3_230 
REMARK   47  A    between atoms: C4_216  and  O4_232 
REMARK   48  A    between atoms: C5_218  and  C6_220 
REMARK   49  A    between atoms: C6_220  and  O6_235 
REMARK       I    between atoms: C7_223  and  N2_228 
REMARK   50  A    between atoms: C2A_247  and  CAA_254 
REMARK   51  A    between atoms: CAA_254  and  CBA_257 
REMARK   52  A    between atoms: CBA_257  and  CGA_260 
REMARK   53  A    between atoms: C3B_265  and  CAB_271 
REMARK   54  A    between atoms: C3C_280  and  CAC_286 
REMARK   55  A    between atoms: C3D_295  and  CAD_301 
REMARK   56  A    between atoms: CAD_301  and  CBD_304 
REMARK   57  A    between atoms: CBD_304  and  CGD_307 
REMARK   58  A    between atoms: C1_318  and  C6_332 
REMARK   59  A    between atoms: C2_319  and  C3_322 
REMARK   60  A    between atoms: C2_319  and  C11_343 
REMARK   61  A    between atoms: C6_332  and  C8_338 
REMARK   62  A    between atoms: C2_353  and  N2_369 
REMARK   63  A    between atoms: C3_355  and  O3_371 
REMARK   64  A    between atoms: C4_357  and  O4_373 
REMARK   65  A    between atoms: C5_359  and  C6_361 
REMARK   66  A    between atoms: C6_361  and  O6_376 
REMARK       I    between atoms: C7_364  and  N2_369 
REMARK   67  A    between atoms: C2_382  and  N2_398 
REMARK   68  A    between atoms: C3_384  and  O3_400 
REMARK   69  A    between atoms: C4_386  and  O4_402 
REMARK   70  A    between atoms: C5_388  and  C6_390 
REMARK   71  A    between atoms: C6_390  and  O6_405 
REMARK       I    between atoms: C7_393  and  N2_398 
REMARK   72  A    between atoms: C2_411  and  N2_427 
REMARK   73  A    between atoms: C3_413  and  O3_429 
REMARK   74  A    between atoms: C4_415  and  O4_431 
REMARK   75  A    between atoms: C5_417  and  C6_419 
REMARK   76  A    between atoms: C6_419  and  O6_434 
REMARK       I    between atoms: C7_422  and  N2_427 
REMARK   77  A    between atoms: C2_440  and  N2_456 
REMARK   78  A    between atoms: C3_442  and  O3_458 
REMARK   79  A    between atoms: C4_444  and  O4_460 
REMARK   80  A    between atoms: C5_446  and  C6_448 
REMARK   81  A    between atoms: C6_448  and  O6_463 
REMARK       I    between atoms: C7_451  and  N2_456 
REMARK   82  A    between atoms: C2_469  and  N2_485 
REMARK   83  A    between atoms: C3_471  and  O3_487 
REMARK   84  A    between atoms: C4_473  and  O4_489 
REMARK   85  A    between atoms: C5_475  and  C6_477 
REMARK   86  A    between atoms: C6_477  and  O6_492 
REMARK       I    between atoms: C7_480  and  N2_485 
REMARK   87  A    between atoms: C1_495  and  O1_497 
REMARK   88  A    between atoms: O1_497  and  C1'_518 
REMARK   89  A    between atoms: C2_498  and  O2_500 
REMARK   90  A    between atoms: C3_502  and  O3_504 
REMARK   91  A    between atoms: C4_506  and  O4_508 
REMARK   92  A    between atoms: C5_510  and  C6_513 
REMARK   93  A    between atoms: C6_513  and  O6_516 
REMARK   94  A    between atoms: C1'_518  and  C2'_521 
REMARK   95  A    between atoms: C2'_521  and  C3'_524 
REMARK   96  A    between atoms: C3'_524  and  C4'_527 
REMARK   97  A    between atoms: C4'_527  and  C5'_530 
REMARK   98  A    between atoms: C5'_530  and  C6'_533 
REMARK   99  A    between atoms: C6'_533  and  C7'_536 
REMARK  100  A    between atoms: C2A_552  and  CAA_559 
REMARK  101  A    between atoms: CAA_559  and  CBA_562 
REMARK  102  A    between atoms: CBA_562  and  CGA_565 
REMARK  103  A    between atoms: C3B_570  and  CAB_576 
REMARK  104  A    between atoms: C3C_585  and  CAC_591 
REMARK  105  A    between atoms: C3D_600  and  CAD_606 
REMARK  106  A    between atoms: CAD_606  and  CBD_609 
REMARK  107  A    between atoms: CBD_609  and  CGD_612 
REMARK  108  A    between atoms: C1_623  and  C6_637 
REMARK  109  A    between atoms: C2_624  and  C3_627 
REMARK  110  A    between atoms: C2_624  and  C11_648 
REMARK  111  A    between atoms: C6_637  and  C8_643 
ROOT
HETATM    1  C1  NAG A 661       9.217   9.819  24.895  1.00 56.58     0.196 C 
HETATM    2  C2  NAG A 661       8.810   8.791  25.952  1.00 57.13     0.139 C 
HETATM    3  C3  NAG A 661       7.295   8.933  26.217  1.00 58.75     0.174 C 
HETATM    4  C4  NAG A 661       6.957  10.370  26.701  1.00 59.05     0.180 C 
HETATM    5  C5  NAG A 661       7.517  11.417  25.688  1.00 58.18     0.176 C 
HETATM    6  O5  NAG A 661       8.923  11.162  25.379  1.00 56.64    -0.379 OA
ENDROOT
BRANCH   2   7
HETATM    7  N2  NAG A 661       9.136   7.457  25.483  1.00 56.54    -0.352 N 
HETATM    8  C7  NAG A 661       9.304   6.456  26.355  1.00 56.74     0.214 C 
HETATM    9  C8  NAG A 661       8.958   5.052  25.882  1.00 56.94     0.117 C 
HETATM   10  O7  NAG A 661       9.723   6.627  27.510  1.00 55.51    -0.274 OA
HETATM   11  H2  NAG A 661       9.237   7.282  24.484  1.00  0.00     0.163 HD
ENDBRANCH   2   7
BRANCH   3  12
HETATM   12  O3  NAG A 661       6.886   7.986  27.195  1.00 59.03    -0.391 OA
HETATM   13  H3  NAG A 661       7.634   7.718  27.716  1.00  0.00     0.210 HD
ENDBRANCH   3  12
BRANCH   5  14
HETATM   14  C6  NAG A 661       7.454  12.852  26.179  1.00 57.73     0.198 C 
BRANCH  14  15
HETATM   15  O6  NAG A 661       7.437  12.915  27.600  1.00 57.21    -0.398 OA
HETATM   16  H6  NAG A 661       8.035  13.578  27.926  1.00  0.00     0.209 HD
ENDBRANCH  14  15
ENDBRANCH   5  14
BRANCH   4  17
HETATM   17  O4  NAG A 661       5.541  10.514  26.821  1.00 60.81    -0.390 OA
HETATM   18  H4  NAG A 661       5.205  10.990  26.070  1.00  0.00     0.210 HD
ENDBRANCH   4  17
TORSDOF 111
ENDMDL
MODEL 7
REMARK VINA RESULT:      -4.9      4.372      5.868
REMARK WARNING: 32 MAX_TORS EXCEEDED!!!
REMARK  111 active torsions:
REMARK  status: ('A' for Active; 'I' for Inactive)
REMARK    1  A    between atoms: C2_2  and  N2_7 
REMARK    2  A    between atoms: C3_3  and  O3_12 
REMARK    3  A    between atoms: C4_4  and  O4_17 
REMARK    4  A    between atoms: C5_5  and  C6_14 
REMARK    5  A    between atoms: C6_14  and  O6_15 
REMARK       I    between atoms: C7_8  and  N2_7 
REMARK    6  A    between atoms: C2_33  and  N2_49 
REMARK    7  A    between atoms: C3_35  and  O3_51 
REMARK    8  A    between atoms: C4_37  and  O4_53 
REMARK    9  A    between atoms: C5_39  and  C6_41 
REMARK   10  A    between atoms: C6_41  and  O6_56 
REMARK       I    between atoms: C7_44  and  N2_49 
REMARK   11  A    between atoms: C2_62  and  N2_78 
REMARK   12  A    between atoms: C3_64  and  O3_80 
REMARK   13  A    between atoms: C4_66  and  O4_82 
REMARK   14  A    between atoms: C5_68  and  C6_70 
REMARK   15  A    between atoms: C6_70  and  O6_85 
REMARK       I    between atoms: C7_73  and  N2_78 
REMARK   16  A    between atoms: C2_91  and  N2_107 
REMARK   17  A    between atoms: C3_93  and  O3_109 
REMARK   18  A    between atoms: C4_95  and  O4_111 
REMARK   19  A    between atoms: C5_97  and  C6_99 
REMARK   20  A    between atoms: C6_99  and  O6_114 
REMARK       I    between atoms: C7_102  and  N2_107 
REMARK   21  A    between atoms: C1_117  and  O1_119 
REMARK   22  A    between atoms: O1_119  and  C1'_140 
REMARK   23  A    between atoms: C2_120  and  O2_122 
REMARK   24  A    between atoms: C3_124  and  O3_126 
REMARK   25  A    between atoms: C4_128  and  O4_130 
REMARK   26  A    between atoms: C5_132  and  C6_135 
REMARK   27  A    between atoms: C6_135  and  O6_138 
REMARK   28  A    between atoms: C1'_140  and  C2'_143 
REMARK   29  A    between atoms: C2'_143  and  C3'_146 
REMARK   30  A    between atoms: C3'_146  and  C4'_149 
REMARK   31  A    between atoms: C4'_149  and  C5'_152 
REMARK   32  A    between atoms: C5'_152  and  C6'_155 
REMARK   33  A    between atoms: C6'_155  and  C7'_158 
REMARK   34  A    between atoms: C1_165  and  O1_167 
REMARK   35  A    between atoms: O1_167  and  C1'_188 
REMARK   36  A    between atoms: C2_168  and  O2_170 
REMARK   37  A    between atoms: C3_172  and  O3_174 
REMARK   38  A    between atoms: C4_176  and  O4_178 
REMARK   39  A    between atoms: C5_180  and  C6_183 
REMARK   40  A    between atoms: C6_183  and  O6_186 
REMARK   41  A    between atoms: C1'_188  and  C2'_191 
REMARK   42  A    between atoms: C3'_193  and  C4'_195 
REMARK   43  A    between atoms: C4'_195  and  C5'_198 
REMARK   44  A    between atoms: C5'_198  and  C6'_201 
REMARK   45  A    between atoms: C2_212  and  N2_228 
REMARK   46  A    between atoms: C3_214  and  O3_230 
REMARK   47  A    between atoms: C4_216  and  O4_232 
REMARK   48  A    between atoms: C5_218  and  C6_220 
REMARK   49  A    between atoms: C6_220  and  O6_235 
REMARK       I    between atoms: C7_223  and  N2_228 
REMARK   50  A    between atoms: C2A_247  and  CAA_254 
REMARK   51  A    between atoms: CAA_254  and  CBA_257 
REMARK   52  A    between atoms: CBA_257  and  CGA_260 
REMARK   53  A    between atoms: C3B_265  and  CAB_271 
REMARK   54  A    between atoms: C3C_280  and  CAC_286 
REMARK   55  A    between atoms: C3D_295  and  CAD_301 
REMARK   56  A    between atoms: CAD_301  and  CBD_304 
REMARK   57  A    between atoms: CBD_304  and  CGD_307 
REMARK   58  A    between atoms: C1_318  and  C6_332 
REMARK   59  A    between atoms: C2_319  and  C3_322 
REMARK   60  A    between atoms: C2_319  and  C11_343 
REMARK   61  A    between atoms: C6_332  and  C8_338 
REMARK   62  A    between atoms: C2_353  and  N2_369 
REMARK   63  A    between atoms: C3_355  and  O3_371 
REMARK   64  A    between atoms: C4_357  and  O4_373 
REMARK   65  A    between atoms: C5_359  and  C6_361 
REMARK   66  A    between atoms: C6_361  and  O6_376 
REMARK       I    between atoms: C7_364  and  N2_369 
REMARK   67  A    between atoms: C2_382  and  N2_398 
REMARK   68  A    between atoms: C3_384  and  O3_400 
REMARK   69  A    between atoms: C4_386  and  O4_402 
REMARK   70  A    between atoms: C5_388  and  C6_390 
REMARK   71  A    between atoms: C6_390  and  O6_405 
REMARK       I    between atoms: C7_393  and  N2_398 
REMARK   72  A    between atoms: C2_411  and  N2_427 
REMARK   73  A    between atoms: C3_413  and  O3_429 
REMARK   74  A    between atoms: C4_415  and  O4_431 
REMARK   75  A    between atoms: C5_417  and  C6_419 
REMARK   76  A    between atoms: C6_419  and  O6_434 
REMARK       I    between atoms: C7_422  and  N2_427 
REMARK   77  A    between atoms: C2_440  and  N2_456 
REMARK   78  A    between atoms: C3_442  and  O3_458 
REMARK   79  A    between atoms: C4_444  and  O4_460 
REMARK   80  A    between atoms: C5_446  and  C6_448 
REMARK   81  A    between atoms: C6_448  and  O6_463 
REMARK       I    between atoms: C7_451  and  N2_456 
REMARK   82  A    between atoms: C2_469  and  N2_485 
REMARK   83  A    between atoms: C3_471  and  O3_487 
REMARK   84  A    between atoms: C4_473  and  O4_489 
REMARK   85  A    between atoms: C5_475  and  C6_477 
REMARK   86  A    between atoms: C6_477  and  O6_492 
REMARK       I    between atoms: C7_480  and  N2_485 
REMARK   87  A    between atoms: C1_495  and  O1_497 
REMARK   88  A    between atoms: O1_497  and  C1'_518 
REMARK   89  A    between atoms: C2_498  and  O2_500 
REMARK   90  A    between atoms: C3_502  and  O3_504 
REMARK   91  A    between atoms: C4_506  and  O4_508 
REMARK   92  A    between atoms: C5_510  and  C6_513 
REMARK   93  A    between atoms: C6_513  and  O6_516 
REMARK   94  A    between atoms: C1'_518  and  C2'_521 
REMARK   95  A    between atoms: C2'_521  and  C3'_524 
REMARK   96  A    between atoms: C3'_524  and  C4'_527 
REMARK   97  A    between atoms: C4'_527  and  C5'_530 
REMARK   98  A    between atoms: C5'_530  and  C6'_533 
REMARK   99  A    between atoms: C6'_533  and  C7'_536 
REMARK  100  A    between atoms: C2A_552  and  CAA_559 
REMARK  101  A    between atoms: CAA_559  and  CBA_562 
REMARK  102  A    between atoms: CBA_562  and  CGA_565 
REMARK  103  A    between atoms: C3B_570  and  CAB_576 
REMARK  104  A    between atoms: C3C_585  and  CAC_591 
REMARK  105  A    between atoms: C3D_600  and  CAD_606 
REMARK  106  A    between atoms: CAD_606  and  CBD_609 
REMARK  107  A    between atoms: CBD_609  and  CGD_612 
REMARK  108  A    between atoms: C1_623  and  C6_637 
REMARK  109  A    between atoms: C2_624  and  C3_627 
REMARK  110  A    between atoms: C2_624  and  C11_648 
REMARK  111  A    between atoms: C6_637  and  C8_643 
ROOT
HETATM    1  C1  NAG A 661       8.568   9.666  24.197  1.00 56.58     0.196 C 
HETATM    2  C2  NAG A 661       8.073  10.507  25.374  1.00 57.13     0.139 C 
HETATM    3  C3  NAG A 661       8.827  10.064  26.647  1.00 58.75     0.174 C 
HETATM    4  C4  NAG A 661       8.590   8.554  26.923  1.00 59.05     0.180 C 
HETATM    5  C5  NAG A 661       8.953   7.718  25.657  1.00 58.18     0.176 C 
HETATM    6  O5  NAG A 661       8.308   8.256  24.460  1.00 56.64    -0.379 OA
ENDROOT
BRANCH   2   7
HETATM    7  N2  NAG A 661       8.300  11.914  25.095  1.00 56.54    -0.352 N 
HETATM    8  C7  NAG A 661       7.285  12.785  25.140  1.00 56.74     0.214 C 
HETATM    9  C8  NAG A 661       7.613  14.219  25.529  1.00 56.94     0.117 C 
HETATM   10  O7  NAG A 661       6.113  12.473  24.883  1.00 55.51    -0.274 OA
HETATM   11  H2  NAG A 661       9.237  12.239  24.863  1.00  0.00     0.163 HD
ENDBRANCH   2   7
BRANCH   3  12
HETATM   12  O3  NAG A 661       8.389  10.833  27.758  1.00 59.03    -0.391 OA
HETATM   13  H3  NAG A 661       8.646  10.406  28.567  1.00  0.00     0.210 HD
ENDBRANCH   3  12
BRANCH   5  14
HETATM   14  C6  NAG A 661       8.536   6.261  25.733  1.00 57.73     0.198 C 
BRANCH  14  15
HETATM   15  O6  NAG A 661       9.167   5.595  26.820  1.00 57.21    -0.398 OA
HETATM   16  H6  NAG A 661      10.101   5.498  26.674  1.00  0.00     0.209 HD
ENDBRANCH  14  15
ENDBRANCH   5  14
BRANCH   4  17
HETATM   17  O4  NAG A 661       9.393   8.140  28.030  1.00 60.81    -0.390 OA
HETATM   18  H4  NAG A 661      10.040   7.510  27.735  1.00  0.00     0.210 HD
ENDBRANCH   4  17
TORSDOF 111
ENDMDL
MODEL 8
REMARK VINA RESULT:      -4.9      1.861      3.148
REMARK WARNING: 32 MAX_TORS EXCEEDED!!!
REMARK  111 active torsions:
REMARK  status: ('A' for Active; 'I' for Inactive)
REMARK    1  A    between atoms: C2_2  and  N2_7 
REMARK    2  A    between atoms: C3_3  and  O3_12 
REMARK    3  A    between atoms: C4_4  and  O4_17 
REMARK    4  A    between atoms: C5_5  and  C6_14 
REMARK    5  A    between atoms: C6_14  and  O6_15 
REMARK       I    between atoms: C7_8  and  N2_7 
REMARK    6  A    between atoms: C2_33  and  N2_49 
REMARK    7  A    between atoms: C3_35  and  O3_51 
REMARK    8  A    between atoms: C4_37  and  O4_53 
REMARK    9  A    between atoms: C5_39  and  C6_41 
REMARK   10  A    between atoms: C6_41  and  O6_56 
REMARK       I    between atoms: C7_44  and  N2_49 
REMARK   11  A    between atoms: C2_62  and  N2_78 
REMARK   12  A    between atoms: C3_64  and  O3_80 
REMARK   13  A    between atoms: C4_66  and  O4_82 
REMARK   14  A    between atoms: C5_68  and  C6_70 
REMARK   15  A    between atoms: C6_70  and  O6_85 
REMARK       I    between atoms: C7_73  and  N2_78 
REMARK   16  A    between atoms: C2_91  and  N2_107 
REMARK   17  A    between atoms: C3_93  and  O3_109 
REMARK   18  A    between atoms: C4_95  and  O4_111 
REMARK   19  A    between atoms: C5_97  and  C6_99 
REMARK   20  A    between atoms: C6_99  and  O6_114 
REMARK       I    between atoms: C7_102  and  N2_107 
REMARK   21  A    between atoms: C1_117  and  O1_119 
REMARK   22  A    between atoms: O1_119  and  C1'_140 
REMARK   23  A    between atoms: C2_120  and  O2_122 
REMARK   24  A    between atoms: C3_124  and  O3_126 
REMARK   25  A    between atoms: C4_128  and  O4_130 
REMARK   26  A    between atoms: C5_132  and  C6_135 
REMARK   27  A    between atoms: C6_135  and  O6_138 
REMARK   28  A    between atoms: C1'_140  and  C2'_143 
REMARK   29  A    between atoms: C2'_143  and  C3'_146 
REMARK   30  A    between atoms: C3'_146  and  C4'_149 
REMARK   31  A    between atoms: C4'_149  and  C5'_152 
REMARK   32  A    between atoms: C5'_152  and  C6'_155 
REMARK   33  A    between atoms: C6'_155  and  C7'_158 
REMARK   34  A    between atoms: C1_165  and  O1_167 
REMARK   35  A    between atoms: O1_167  and  C1'_188 
REMARK   36  A    between atoms: C2_168  and  O2_170 
REMARK   37  A    between atoms: C3_172  and  O3_174 
REMARK   38  A    between atoms: C4_176  and  O4_178 
REMARK   39  A    between atoms: C5_180  and  C6_183 
REMARK   40  A    between atoms: C6_183  and  O6_186 
REMARK   41  A    between atoms: C1'_188  and  C2'_191 
REMARK   42  A    between atoms: C3'_193  and  C4'_195 
REMARK   43  A    between atoms: C4'_195  and  C5'_198 
REMARK   44  A    between atoms: C5'_198  and  C6'_201 
REMARK   45  A    between atoms: C2_212  and  N2_228 
REMARK   46  A    between atoms: C3_214  and  O3_230 
REMARK   47  A    between atoms: C4_216  and  O4_232 
REMARK   48  A    between atoms: C5_218  and  C6_220 
REMARK   49  A    between atoms: C6_220  and  O6_235 
REMARK       I    between atoms: C7_223  and  N2_228 
REMARK   50  A    between atoms: C2A_247  and  CAA_254 
REMARK   51  A    between atoms: CAA_254  and  CBA_257 
REMARK   52  A    between atoms: CBA_257  and  CGA_260 
REMARK   53  A    between atoms: C3B_265  and  CAB_271 
REMARK   54  A    between atoms: C3C_280  and  CAC_286 
REMARK   55  A    between atoms: C3D_295  and  CAD_301 
REMARK   56  A    between atoms: CAD_301  and  CBD_304 
REMARK   57  A    between atoms: CBD_304  and  CGD_307 
REMARK   58  A    between atoms: C1_318  and  C6_332 
REMARK   59  A    between atoms: C2_319  and  C3_322 
REMARK   60  A    between atoms: C2_319  and  C11_343 
REMARK   61  A    between atoms: C6_332  and  C8_338 
REMARK   62  A    between atoms: C2_353  and  N2_369 
REMARK   63  A    between atoms: C3_355  and  O3_371 
REMARK   64  A    between atoms: C4_357  and  O4_373 
REMARK   65  A    between atoms: C5_359  and  C6_361 
REMARK   66  A    between atoms: C6_361  and  O6_376 
REMARK       I    between atoms: C7_364  and  N2_369 
REMARK   67  A    between atoms: C2_382  and  N2_398 
REMARK   68  A    between atoms: C3_384  and  O3_400 
REMARK   69  A    between atoms: C4_386  and  O4_402 
REMARK   70  A    between atoms: C5_388  and  C6_390 
REMARK   71  A    between atoms: C6_390  and  O6_405 
REMARK       I    between atoms: C7_393  and  N2_398 
REMARK   72  A    between atoms: C2_411  and  N2_427 
REMARK   73  A    between atoms: C3_413  and  O3_429 
REMARK   74  A    between atoms: C4_415  and  O4_431 
REMARK   75  A    between atoms: C5_417  and  C6_419 
REMARK   76  A    between atoms: C6_419  and  O6_434 
REMARK       I    between atoms: C7_422  and  N2_427 
REMARK   77  A    between atoms: C2_440  and  N2_456 
REMARK   78  A    between atoms: C3_442  and  O3_458 
REMARK   79  A    between atoms: C4_444  and  O4_460 
REMARK   80  A    between atoms: C5_446  and  C6_448 
REMARK   81  A    between atoms: C6_448  and  O6_463 
REMARK       I    between atoms: C7_451  and  N2_456 
REMARK   82  A    between atoms: C2_469  and  N2_485 
REMARK   83  A    between atoms: C3_471  and  O3_487 
REMARK   84  A    between atoms: C4_473  and  O4_489 
REMARK   85  A    between atoms: C5_475  and  C6_477 
REMARK   86  A    between atoms: C6_477  and  O6_492 
REMARK       I    between atoms: C7_480  and  N2_485 
REMARK   87  A    between atoms: C1_495  and  O1_497 
REMARK   88  A    between atoms: O1_497  and  C1'_518 
REMARK   89  A    between atoms: C2_498  and  O2_500 
REMARK   90  A    between atoms: C3_502  and  O3_504 
REMARK   91  A    between atoms: C4_506  and  O4_508 
REMARK   92  A    between atoms: C5_510  and  C6_513 
REMARK   93  A    between atoms: C6_513  and  O6_516 
REMARK   94  A    between atoms: C1'_518  and  C2'_521 
REMARK   95  A    between atoms: C2'_521  and  C3'_524 
REMARK   96  A    between atoms: C3'_524  and  C4'_527 
REMARK   97  A    between atoms: C4'_527  and  C5'_530 
REMARK   98  A    between atoms: C5'_530  and  C6'_533 
REMARK   99  A    between atoms: C6'_533  and  C7'_536 
REMARK  100  A    between atoms: C2A_552  and  CAA_559 
REMARK  101  A    between atoms: CAA_559  and  CBA_562 
REMARK  102  A    between atoms: CBA_562  and  CGA_565 
REMARK  103  A    between atoms: C3B_570  and  CAB_576 
REMARK  104  A    between atoms: C3C_585  and  CAC_591 
REMARK  105  A    between atoms: C3D_600  and  CAD_606 
REMARK  106  A    between atoms: CAD_606  and  CBD_609 
REMARK  107  A    between atoms: CBD_609  and  CGD_612 
REMARK  108  A    between atoms: C1_623  and  C6_637 
REMARK  109  A    between atoms: C2_624  and  C3_627 
REMARK  110  A    between atoms: C2_624  and  C11_648 
REMARK  111  A    between atoms: C6_637  and  C8_643 
ROOT
HETATM    1  C1  NAG A 661       6.209  15.630  25.285  1.00 56.58     0.196 C 
HETATM    2  C2  NAG A 661       6.623  14.507  26.237  1.00 57.13     0.139 C 
HETATM    3  C3  NAG A 661       7.477  13.487  25.452  1.00 58.75     0.174 C 
HETATM    4  C4  NAG A 661       6.676  12.912  24.252  1.00 59.05     0.180 C 
HETATM    5  C5  NAG A 661       6.127  14.077  23.373  1.00 58.18     0.176 C 
HETATM    6  O5  NAG A 661       5.432  15.076  24.184  1.00 56.64    -0.379 OA
ENDROOT
BRANCH   2   7
HETATM    7  N2  NAG A 661       7.367  15.064  27.351  1.00 56.54    -0.352 N 
HETATM    8  C7  NAG A 661       6.835  15.081  28.579  1.00 56.74     0.214 C 
HETATM    9  C8  NAG A 661       7.794  15.001  29.757  1.00 56.94     0.117 C 
HETATM   10  O7  NAG A 661       5.614  15.158  28.787  1.00 55.51    -0.274 OA
HETATM   11  H2  NAG A 661       8.300  15.445  27.198  1.00  0.00     0.163 HD
ENDBRANCH   2   7
BRANCH   3  12
HETATM   12  O3  NAG A 661       7.880  12.431  26.315  1.00 59.03    -0.391 OA
HETATM   13  H3  NAG A 661       8.823  12.327  26.278  1.00  0.00     0.210 HD
ENDBRANCH   3  12
BRANCH   5  14
HETATM   14  C6  NAG A 661       5.133  13.640  22.312  1.00 57.73     0.198 C 
BRANCH  14  15
HETATM   15  O6  NAG A 661       5.781  12.977  21.233  1.00 57.21    -0.398 OA
HETATM   16  H6  NAG A 661       5.257  12.256  20.902  1.00  0.00     0.209 HD
ENDBRANCH  14  15
ENDBRANCH   5  14
BRANCH   4  17
HETATM   17  O4  NAG A 661       7.525  12.067  23.472  1.00 60.81    -0.390 OA
HETATM   18  H4  NAG A 661       8.271  12.566  23.163  1.00  0.00     0.210 HD
ENDBRANCH   4  17
TORSDOF 111
ENDMDL
MODEL 9
REMARK VINA RESULT:      -4.9      1.582      2.655
REMARK WARNING: 32 MAX_TORS EXCEEDED!!!
REMARK  111 active torsions:
REMARK  status: ('A' for Active; 'I' for Inactive)
REMARK    1  A    between atoms: C2_2  and  N2_7 
REMARK    2  A    between atoms: C3_3  and  O3_12 
REMARK    3  A    between atoms: C4_4  and  O4_17 
REMARK    4  A    between atoms: C5_5  and  C6_14 
REMARK    5  A    between atoms: C6_14  and  O6_15 
REMARK       I    between atoms: C7_8  and  N2_7 
REMARK    6  A    between atoms: C2_33  and  N2_49 
REMARK    7  A    between atoms: C3_35  and  O3_51 
REMARK    8  A    between atoms: C4_37  and  O4_53 
REMARK    9  A    between atoms: C5_39  and  C6_41 
REMARK   10  A    between atoms: C6_41  and  O6_56 
REMARK       I    between atoms: C7_44  and  N2_49 
REMARK   11  A    between atoms: C2_62  and  N2_78 
REMARK   12  A    between atoms: C3_64  and  O3_80 
REMARK   13  A    between atoms: C4_66  and  O4_82 
REMARK   14  A    between atoms: C5_68  and  C6_70 
REMARK   15  A    between atoms: C6_70  and  O6_85 
REMARK       I    between atoms: C7_73  and  N2_78 
REMARK   16  A    between atoms: C2_91  and  N2_107 
REMARK   17  A    between atoms: C3_93  and  O3_109 
REMARK   18  A    between atoms: C4_95  and  O4_111 
REMARK   19  A    between atoms: C5_97  and  C6_99 
REMARK   20  A    between atoms: C6_99  and  O6_114 
REMARK       I    between atoms: C7_102  and  N2_107 
REMARK   21  A    between atoms: C1_117  and  O1_119 
REMARK   22  A    between atoms: O1_119  and  C1'_140 
REMARK   23  A    between atoms: C2_120  and  O2_122 
REMARK   24  A    between atoms: C3_124  and  O3_126 
REMARK   25  A    between atoms: C4_128  and  O4_130 
REMARK   26  A    between atoms: C5_132  and  C6_135 
REMARK   27  A    between atoms: C6_135  and  O6_138 
REMARK   28  A    between atoms: C1'_140  and  C2'_143 
REMARK   29  A    between atoms: C2'_143  and  C3'_146 
REMARK   30  A    between atoms: C3'_146  and  C4'_149 
REMARK   31  A    between atoms: C4'_149  and  C5'_152 
REMARK   32  A    between atoms: C5'_152  and  C6'_155 
REMARK   33  A    between atoms: C6'_155  and  C7'_158 
REMARK   34  A    between atoms: C1_165  and  O1_167 
REMARK   35  A    between atoms: O1_167  and  C1'_188 
REMARK   36  A    between atoms: C2_168  and  O2_170 
REMARK   37  A    between atoms: C3_172  and  O3_174 
REMARK   38  A    between atoms: C4_176  and  O4_178 
REMARK   39  A    between atoms: C5_180  and  C6_183 
REMARK   40  A    between atoms: C6_183  and  O6_186 
REMARK   41  A    between atoms: C1'_188  and  C2'_191 
REMARK   42  A    between atoms: C3'_193  and  C4'_195 
REMARK   43  A    between atoms: C4'_195  and  C5'_198 
REMARK   44  A    between atoms: C5'_198  and  C6'_201 
REMARK   45  A    between atoms: C2_212  and  N2_228 
REMARK   46  A    between atoms: C3_214  and  O3_230 
REMARK   47  A    between atoms: C4_216  and  O4_232 
REMARK   48  A    between atoms: C5_218  and  C6_220 
REMARK   49  A    between atoms: C6_220  and  O6_235 
REMARK       I    between atoms: C7_223  and  N2_228 
REMARK   50  A    between atoms: C2A_247  and  CAA_254 
REMARK   51  A    between atoms: CAA_254  and  CBA_257 
REMARK   52  A    between atoms: CBA_257  and  CGA_260 
REMARK   53  A    between atoms: C3B_265  and  CAB_271 
REMARK   54  A    between atoms: C3C_280  and  CAC_286 
REMARK   55  A    between atoms: C3D_295  and  CAD_301 
REMARK   56  A    between atoms: CAD_301  and  CBD_304 
REMARK   57  A    between atoms: CBD_304  and  CGD_307 
REMARK   58  A    between atoms: C1_318  and  C6_332 
REMARK   59  A    between atoms: C2_319  and  C3_322 
REMARK   60  A    between atoms: C2_319  and  C11_343 
REMARK   61  A    between atoms: C6_332  and  C8_338 
REMARK   62  A    between atoms: C2_353  and  N2_369 
REMARK   63  A    between atoms: C3_355  and  O3_371 
REMARK   64  A    between atoms: C4_357  and  O4_373 
REMARK   65  A    between atoms: C5_359  and  C6_361 
REMARK   66  A    between atoms: C6_361  and  O6_376 
REMARK       I    between atoms: C7_364  and  N2_369 
REMARK   67  A    between atoms: C2_382  and  N2_398 
REMARK   68  A    between atoms: C3_384  and  O3_400 
REMARK   69  A    between atoms: C4_386  and  O4_402 
REMARK   70  A    between atoms: C5_388  and  C6_390 
REMARK   71  A    between atoms: C6_390  and  O6_405 
REMARK       I    between atoms: C7_393  and  N2_398 
REMARK   72  A    between atoms: C2_411  and  N2_427 
REMARK   73  A    between atoms: C3_413  and  O3_429 
REMARK   74  A    between atoms: C4_415  and  O4_431 
REMARK   75  A    between atoms: C5_417  and  C6_419 
REMARK   76  A    between atoms: C6_419  and  O6_434 
REMARK       I    between atoms: C7_422  and  N2_427 
REMARK   77  A    between atoms: C2_440  and  N2_456 
REMARK   78  A    between atoms: C3_442  and  O3_458 
REMARK   79  A    between atoms: C4_444  and  O4_460 
REMARK   80  A    between atoms: C5_446  and  C6_448 
REMARK   81  A    between atoms: C6_448  and  O6_463 
REMARK       I    between atoms: C7_451  and  N2_456 
REMARK   82  A    between atoms: C2_469  and  N2_485 
REMARK   83  A    between atoms: C3_471  and  O3_487 
REMARK   84  A    between atoms: C4_473  and  O4_489 
REMARK   85  A    between atoms: C5_475  and  C6_477 
REMARK   86  A    between atoms: C6_477  and  O6_492 
REMARK       I    between atoms: C7_480  and  N2_485 
REMARK   87  A    between atoms: C1_495  and  O1_497 
REMARK   88  A    between atoms: O1_497  and  C1'_518 
REMARK   89  A    between atoms: C2_498  and  O2_500 
REMARK   90  A    between atoms: C3_502  and  O3_504 
REMARK   91  A    between atoms: C4_506  and  O4_508 
REMARK   92  A    between atoms: C5_510  and  C6_513 
REMARK   93  A    between atoms: C6_513  and  O6_516 
REMARK   94  A    between atoms: C1'_518  and  C2'_521 
REMARK   95  A    between atoms: C2'_521  and  C3'_524 
REMARK   96  A    between atoms: C3'_524  and  C4'_527 
REMARK   97  A    between atoms: C4'_527  and  C5'_530 
REMARK   98  A    between atoms: C5'_530  and  C6'_533 
REMARK   99  A    between atoms: C6'_533  and  C7'_536 
REMARK  100  A    between atoms: C2A_552  and  CAA_559 
REMARK  101  A    between atoms: CAA_559  and  CBA_562 
REMARK  102  A    between atoms: CBA_562  and  CGA_565 
REMARK  103  A    between atoms: C3B_570  and  CAB_576 
REMARK  104  A    between atoms: C3C_585  and  CAC_591 
REMARK  105  A    between atoms: C3D_600  and  CAD_606 
REMARK  106  A    between atoms: CAD_606  and  CBD_609 
REMARK  107  A    between atoms: CBD_609  and  CGD_612 
REMARK  108  A    between atoms: C1_623  and  C6_637 
REMARK  109  A    between atoms: C2_624  and  C3_627 
REMARK  110  A    between atoms: C2_624  and  C11_648 
REMARK  111  A    between atoms: C6_637  and  C8_643 
ROOT
HETATM    1  C1  NAG A 661       6.341  14.533  23.052  1.00 56.58     0.196 C 
HETATM    2  C2  NAG A 661       6.634  13.216  23.773  1.00 57.13     0.139 C 
HETATM    3  C3  NAG A 661       7.505  12.335  22.851  1.00 58.75     0.174 C 
HETATM    4  C4  NAG A 661       6.778  12.066  21.506  1.00 59.05     0.180 C 
HETATM    5  C5  NAG A 661       6.347  13.417  20.855  1.00 58.18     0.176 C 
HETATM    6  O5  NAG A 661       5.631  14.263  21.809  1.00 56.64    -0.379 OA
ENDROOT
BRANCH   2   7
HETATM    7  N2  NAG A 661       7.309  13.489  25.028  1.00 56.54    -0.352 N 
HETATM    8  C7  NAG A 661       6.689  14.173  25.997  1.00 56.74     0.214 C 
HETATM    9  C8  NAG A 661       7.079  13.860  27.433  1.00 56.94     0.117 C 
HETATM   10  O7  NAG A 661       5.826  15.035  25.770  1.00 55.51    -0.274 OA
HETATM   11  H2  NAG A 661       8.262  13.156  25.173  1.00  0.00     0.163 HD
ENDBRANCH   2   7
BRANCH   3  12
HETATM   12  O3  NAG A 661       7.796  11.103  23.498  1.00 59.03    -0.391 OA
HETATM   13  H3  NAG A 661       7.187  10.434  23.206  1.00  0.00     0.210 HD
ENDBRANCH   3  12
BRANCH   5  14
HETATM   14  C6  NAG A 661       5.423  13.265  19.661  1.00 57.73     0.198 C 
BRANCH  14  15
HETATM   15  O6  NAG A 661       6.141  12.896  18.490  1.00 57.21    -0.398 OA
HETATM   16  H6  NAG A 661       6.033  13.538  17.798  1.00  0.00     0.209 HD
ENDBRANCH  14  15
ENDBRANCH   5  14
BRANCH   4  17
HETATM   17  O4  NAG A 661       7.651  11.355  20.625  1.00 60.81    -0.390 OA
HETATM   18  H4  NAG A 661       7.641  10.431  20.847  1.00  0.00     0.210 HD
ENDBRANCH   4  17
TORSDOF 111
ENDMDL
MODEL 10
REMARK VINA RESULT:      -4.9      2.758      4.332
REMARK WARNING: 32 MAX_TORS EXCEEDED!!!
REMARK  111 active torsions:
REMARK  status: ('A' for Active; 'I' for Inactive)
REMARK    1  A    between atoms: C2_2  and  N2_7 
REMARK    2  A    between atoms: C3_3  and  O3_12 
REMARK    3  A    between atoms: C4_4  and  O4_17 
REMARK    4  A    between atoms: C5_5  and  C6_14 
REMARK    5  A    between atoms: C6_14  and  O6_15 
REMARK       I    between atoms: C7_8  and  N2_7 
REMARK    6  A    between atoms: C2_33  and  N2_49 
REMARK    7  A    between atoms: C3_35  and  O3_51 
REMARK    8  A    between atoms: C4_37  and  O4_53 
REMARK    9  A    between atoms: C5_39  and  C6_41 
REMARK   10  A    between atoms: C6_41  and  O6_56 
REMARK       I    between atoms: C7_44  and  N2_49 
REMARK   11  A    between atoms: C2_62  and  N2_78 
REMARK   12  A    between atoms: C3_64  and  O3_80 
REMARK   13  A    between atoms: C4_66  and  O4_82 
REMARK   14  A    between atoms: C5_68  and  C6_70 
REMARK   15  A    between atoms: C6_70  and  O6_85 
REMARK       I    between atoms: C7_73  and  N2_78 
REMARK   16  A    between atoms: C2_91  and  N2_107 
REMARK   17  A    between atoms: C3_93  and  O3_109 
REMARK   18  A    between atoms: C4_95  and  O4_111 
REMARK   19  A    between atoms: C5_97  and  C6_99 
REMARK   20  A    between atoms: C6_99  and  O6_114 
REMARK       I    between atoms: C7_102  and  N2_107 
REMARK   21  A    between atoms: C1_117  and  O1_119 
REMARK   22  A    between atoms: O1_119  and  C1'_140 
REMARK   23  A    between atoms: C2_120  and  O2_122 
REMARK   24  A    between atoms: C3_124  and  O3_126 
REMARK   25  A    between atoms: C4_128  and  O4_130 
REMARK   26  A    between atoms: C5_132  and  C6_135 
REMARK   27  A    between atoms: C6_135  and  O6_138 
REMARK   28  A    between atoms: C1'_140  and  C2'_143 
REMARK   29  A    between atoms: C2'_143  and  C3'_146 
REMARK   30  A    between atoms: C3'_146  and  C4'_149 
REMARK   31  A    between atoms: C4'_149  and  C5'_152 
REMARK   32  A    between atoms: C5'_152  and  C6'_155 
REMARK   33  A    between atoms: C6'_155  and  C7'_158 
REMARK   34  A    between atoms: C1_165  and  O1_167 
REMARK   35  A    between atoms: O1_167  and  C1'_188 
REMARK   36  A    between atoms: C2_168  and  O2_170 
REMARK   37  A    between atoms: C3_172  and  O3_174 
REMARK   38  A    between atoms: C4_176  and  O4_178 
REMARK   39  A    between atoms: C5_180  and  C6_183 
REMARK   40  A    between atoms: C6_183  and  O6_186 
REMARK   41  A    between atoms: C1'_188  and  C2'_191 
REMARK   42  A    between atoms: C3'_193  and  C4'_195 
REMARK   43  A    between atoms: C4'_195  and  C5'_198 
REMARK   44  A    between atoms: C5'_198  and  C6'_201 
REMARK   45  A    between atoms: C2_212  and  N2_228 
REMARK   46  A    between atoms: C3_214  and  O3_230 
REMARK   47  A    between atoms: C4_216  and  O4_232 
REMARK   48  A    between atoms: C5_218  and  C6_220 
REMARK   49  A    between atoms: C6_220  and  O6_235 
REMARK       I    between atoms: C7_223  and  N2_228 
REMARK   50  A    between atoms: C2A_247  and  CAA_254 
REMARK   51  A    between atoms: CAA_254  and  CBA_257 
REMARK   52  A    between atoms: CBA_257  and  CGA_260 
REMARK   53  A    between atoms: C3B_265  and  CAB_271 
REMARK   54  A    between atoms: C3C_280  and  CAC_286 
REMARK   55  A    between atoms: C3D_295  and  CAD_301 
REMARK   56  A    between atoms: CAD_301  and  CBD_304 
REMARK   57  A    between atoms: CBD_304  and  CGD_307 
REMARK   58  A    between atoms: C1_318  and  C6_332 
REMARK   59  A    between atoms: C2_319  and  C3_322 
REMARK   60  A    between atoms: C2_319  and  C11_343 
REMARK   61  A    between atoms: C6_332  and  C8_338 
REMARK   62  A    between atoms: C2_353  and  N2_369 
REMARK   63  A    between atoms: C3_355  and  O3_371 
REMARK   64  A    between atoms: C4_357  and  O4_373 
REMARK   65  A    between atoms: C5_359  and  C6_361 
REMARK   66  A    between atoms: C6_361  and  O6_376 
REMARK       I    between atoms: C7_364  and  N2_369 
REMARK   67  A    between atoms: C2_382  and  N2_398 
REMARK   68  A    between atoms: C3_384  and  O3_400 
REMARK   69  A    between atoms: C4_386  and  O4_402 
REMARK   70  A    between atoms: C5_388  and  C6_390 
REMARK   71  A    between atoms: C6_390  and  O6_405 
REMARK       I    between atoms: C7_393  and  N2_398 
REMARK   72  A    between atoms: C2_411  and  N2_427 
REMARK   73  A    between atoms: C3_413  and  O3_429 
REMARK   74  A    between atoms: C4_415  and  O4_431 
REMARK   75  A    between atoms: C5_417  and  C6_419 
REMARK   76  A    between atoms: C6_419  and  O6_434 
REMARK       I    between atoms: C7_422  and  N2_427 
REMARK   77  A    between atoms: C2_440  and  N2_456 
REMARK   78  A    between atoms: C3_442  and  O3_458 
REMARK   79  A    between atoms: C4_444  and  O4_460 
REMARK   80  A    between atoms: C5_446  and  C6_448 
REMARK   81  A    between atoms: C6_448  and  O6_463 
REMARK       I    between atoms: C7_451  and  N2_456 
REMARK   82  A    between atoms: C2_469  and  N2_485 
REMARK   83  A    between atoms: C3_471  and  O3_487 
REMARK   84  A    between atoms: C4_473  and  O4_489 
REMARK   85  A    between atoms: C5_475  and  C6_477 
REMARK   86  A    between atoms: C6_477  and  O6_492 
REMARK       I    between atoms: C7_480  and  N2_485 
REMARK   87  A    between atoms: C1_495  and  O1_497 
REMARK   88  A    between atoms: O1_497  and  C1'_518 
REMARK   89  A    between atoms: C2_498  and  O2_500 
REMARK   90  A    between atoms: C3_502  and  O3_504 
REMARK   91  A    between atoms: C4_506  and  O4_508 
REMARK   92  A    between atoms: C5_510  and  C6_513 
REMARK   93  A    between atoms: C6_513  and  O6_516 
REMARK   94  A    between atoms: C1'_518  and  C2'_521 
REMARK   95  A    between atoms: C2'_521  and  C3'_524 
REMARK   96  A    between atoms: C3'_524  and  C4'_527 
REMARK   97  A    between atoms: C4'_527  and  C5'_530 
REMARK   98  A    between atoms: C5'_530  and  C6'_533 
REMARK   99  A    between atoms: C6'_533  and  C7'_536 
REMARK  100  A    between atoms: C2A_552  and  CAA_559 
REMARK  101  A    between atoms: CAA_559  and  CBA_562 
REMARK  102  A    between atoms: CBA_562  and  CGA_565 
REMARK  103  A    between atoms: C3B_570  and  CAB_576 
REMARK  104  A    between atoms: C3C_585  and  CAC_591 
REMARK  105  A    between atoms: C3D_600  and  CAD_606 
REMARK  106  A    between atoms: CAD_606  and  CBD_609 
REMARK  107  A    between atoms: CBD_609  and  CGD_612 
REMARK  108  A    between atoms: C1_623  and  C6_637 
REMARK  109  A    between atoms: C2_624  and  C3_627 
REMARK  110  A    between atoms: C2_624  and  C11_648 
REMARK  111  A    between atoms: C6_637  and  C8_643 
ROOT
HETATM    1  C1  NAG A 661       7.009  12.361  26.994  1.00 56.58     0.196 C 
HETATM    2  C2  NAG A 661       7.348  12.955  25.626  1.00 57.13     0.139 C 
HETATM    3  C3  NAG A 661       7.466  11.802  24.606  1.00 58.75     0.174 C 
HETATM    4  C4  NAG A 661       8.562  10.793  25.045  1.00 59.05     0.180 C 
HETATM    5  C5  NAG A 661       8.288  10.313  26.505  1.00 58.18     0.176 C 
HETATM    6  O5  NAG A 661       8.063  11.443  27.405  1.00 56.64    -0.379 OA
ENDROOT
BRANCH   2   7
HETATM    7  N2  NAG A 661       6.315  13.896  25.235  1.00 56.54    -0.352 N 
HETATM    8  C7  NAG A 661       6.628  15.166  24.953  1.00 56.74     0.214 C 
HETATM    9  C8  NAG A 661       5.755  15.893  23.942  1.00 56.94     0.117 C 
HETATM   10  O7  NAG A 661       7.583  15.760  25.476  1.00 55.51    -0.274 OA
HETATM   11  H2  NAG A 661       5.345  13.588  25.174  1.00  0.00     0.163 HD
ENDBRANCH   2   7
BRANCH   3  12
HETATM   12  O3  NAG A 661       7.778  12.325  23.322  1.00 59.03    -0.391 OA
HETATM   13  H3  NAG A 661       8.277  11.686  22.826  1.00  0.00     0.210 HD
ENDBRANCH   3  12
BRANCH   5  14
HETATM   14  C6  NAG A 661       9.422   9.513  27.119  1.00 57.73     0.198 C 
BRANCH  14  15
HETATM   15  O6  NAG A 661       9.402   8.160  26.681  1.00 57.21    -0.398 OA
HETATM   16  H6  NAG A 661      10.088   7.650  27.096  1.00  0.00     0.209 HD
ENDBRANCH  14  15
ENDBRANCH   5  14
BRANCH   4  17
HETATM   17  O4  NAG A 661       8.568   9.675  24.155  1.00 60.81    -0.390 OA
HETATM   18  H4  NAG A 661       9.357   9.164  24.293  1.00  0.00     0.210 HD
ENDBRANCH   4  17
TORSDOF 111
ENDMDL
MODEL 11
REMARK VINA RESULT:      -4.8      5.638      7.919
REMARK WARNING: 32 MAX_TORS EXCEEDED!!!
REMARK  111 active torsions:
REMARK  status: ('A' for Active; 'I' for Inactive)
REMARK    1  A    between atoms: C2_2  and  N2_7 
REMARK    2  A    between atoms: C3_3  and  O3_12 
REMARK    3  A    between atoms: C4_4  and  O4_17 
REMARK    4  A    between atoms: C5_5  and  C6_14 
REMARK    5  A    between atoms: C6_14  and  O6_15 
REMARK       I    between atoms: C7_8  and  N2_7 
REMARK    6  A    between atoms: C2_33  and  N2_49 
REMARK    7  A    between atoms: C3_35  and  O3_51 
REMARK    8  A    between atoms: C4_37  and  O4_53 
REMARK    9  A    between atoms: C5_39  and  C6_41 
REMARK   10  A    between atoms: C6_41  and  O6_56 
REMARK       I    between atoms: C7_44  and  N2_49 
REMARK   11  A    between atoms: C2_62  and  N2_78 
REMARK   12  A    between atoms: C3_64  and  O3_80 
REMARK   13  A    between atoms: C4_66  and  O4_82 
REMARK   14  A    between atoms: C5_68  and  C6_70 
REMARK   15  A    between atoms: C6_70  and  O6_85 
REMARK       I    between atoms: C7_73  and  N2_78 
REMARK   16  A    between atoms: C2_91  and  N2_107 
REMARK   17  A    between atoms: C3_93  and  O3_109 
REMARK   18  A    between atoms: C4_95  and  O4_111 
REMARK   19  A    between atoms: C5_97  and  C6_99 
REMARK   20  A    between atoms: C6_99  and  O6_114 
REMARK       I    between atoms: C7_102  and  N2_107 
REMARK   21  A    between atoms: C1_117  and  O1_119 
REMARK   22  A    between atoms: O1_119  and  C1'_140 
REMARK   23  A    between atoms: C2_120  and  O2_122 
REMARK   24  A    between atoms: C3_124  and  O3_126 
REMARK   25  A    between atoms: C4_128  and  O4_130 
REMARK   26  A    between atoms: C5_132  and  C6_135 
REMARK   27  A    between atoms: C6_135  and  O6_138 
REMARK   28  A    between atoms: C1'_140  and  C2'_143 
REMARK   29  A    between atoms: C2'_143  and  C3'_146 
REMARK   30  A    between atoms: C3'_146  and  C4'_149 
REMARK   31  A    between atoms: C4'_149  and  C5'_152 
REMARK   32  A    between atoms: C5'_152  and  C6'_155 
REMARK   33  A    between atoms: C6'_155  and  C7'_158 
REMARK   34  A    between atoms: C1_165  and  O1_167 
REMARK   35  A    between atoms: O1_167  and  C1'_188 
REMARK   36  A    between atoms: C2_168  and  O2_170 
REMARK   37  A    between atoms: C3_172  and  O3_174 
REMARK   38  A    between atoms: C4_176  and  O4_178 
REMARK   39  A    between atoms: C5_180  and  C6_183 
REMARK   40  A    between atoms: C6_183  and  O6_186 
REMARK   41  A    between atoms: C1'_188  and  C2'_191 
REMARK   42  A    between atoms: C3'_193  and  C4'_195 
REMARK   43  A    between atoms: C4'_195  and  C5'_198 
REMARK   44  A    between atoms: C5'_198  and  C6'_201 
REMARK   45  A    between atoms: C2_212  and  N2_228 
REMARK   46  A    between atoms: C3_214  and  O3_230 
REMARK   47  A    between atoms: C4_216  and  O4_232 
REMARK   48  A    between atoms: C5_218  and  C6_220 
REMARK   49  A    between atoms: C6_220  and  O6_235 
REMARK       I    between atoms: C7_223  and  N2_228 
REMARK   50  A    between atoms: C2A_247  and  CAA_254 
REMARK   51  A    between atoms: CAA_254  and  CBA_257 
REMARK   52  A    between atoms: CBA_257  and  CGA_260 
REMARK   53  A    between atoms: C3B_265  and  CAB_271 
REMARK   54  A    between atoms: C3C_280  and  CAC_286 
REMARK   55  A    between atoms: C3D_295  and  CAD_301 
REMARK   56  A    between atoms: CAD_301  and  CBD_304 
REMARK   57  A    between atoms: CBD_304  and  CGD_307 
REMARK   58  A    between atoms: C1_318  and  C6_332 
REMARK   59  A    between atoms: C2_319  and  C3_322 
REMARK   60  A    between atoms: C2_319  and  C11_343 
REMARK   61  A    between atoms: C6_332  and  C8_338 
REMARK   62  A    between atoms: C2_353  and  N2_369 
REMARK   63  A    between atoms: C3_355  and  O3_371 
REMARK   64  A    between atoms: C4_357  and  O4_373 
REMARK   65  A    between atoms: C5_359  and  C6_361 
REMARK   66  A    between atoms: C6_361  and  O6_376 
REMARK       I    between atoms: C7_364  and  N2_369 
REMARK   67  A    between atoms: C2_382  and  N2_398 
REMARK   68  A    between atoms: C3_384  and  O3_400 
REMARK   69  A    between atoms: C4_386  and  O4_402 
REMARK   70  A    between atoms: C5_388  and  C6_390 
REMARK   71  A    between atoms: C6_390  and  O6_405 
REMARK       I    between atoms: C7_393  and  N2_398 
REMARK   72  A    between atoms: C2_411  and  N2_427 
REMARK   73  A    between atoms: C3_413  and  O3_429 
REMARK   74  A    between atoms: C4_415  and  O4_431 
REMARK   75  A    between atoms: C5_417  and  C6_419 
REMARK   76  A    between atoms: C6_419  and  O6_434 
REMARK       I    between atoms: C7_422  and  N2_427 
REMARK   77  A    between atoms: C2_440  and  N2_456 
REMARK   78  A    between atoms: C3_442  and  O3_458 
REMARK   79  A    between atoms: C4_444  and  O4_460 
REMARK   80  A    between atoms: C5_446  and  C6_448 
REMARK   81  A    between atoms: C6_448  and  O6_463 
REMARK       I    between atoms: C7_451  and  N2_456 
REMARK   82  A    between atoms: C2_469  and  N2_485 
REMARK   83  A    between atoms: C3_471  and  O3_487 
REMARK   84  A    between atoms: C4_473  and  O4_489 
REMARK   85  A    between atoms: C5_475  and  C6_477 
REMARK   86  A    between atoms: C6_477  and  O6_492 
REMARK       I    between atoms: C7_480  and  N2_485 
REMARK   87  A    between atoms: C1_495  and  O1_497 
REMARK   88  A    between atoms: O1_497  and  C1'_518 
REMARK   89  A    between atoms: C2_498  and  O2_500 
REMARK   90  A    between atoms: C3_502  and  O3_504 
REMARK   91  A    between atoms: C4_506  and  O4_508 
REMARK   92  A    between atoms: C5_510  and  C6_513 
REMARK   93  A    between atoms: C6_513  and  O6_516 
REMARK   94  A    between atoms: C1'_518  and  C2'_521 
REMARK   95  A    between atoms: C2'_521  and  C3'_524 
REMARK   96  A    between atoms: C3'_524  and  C4'_527 
REMARK   97  A    between atoms: C4'_527  and  C5'_530 
REMARK   98  A    between atoms: C5'_530  and  C6'_533 
REMARK   99  A    between atoms: C6'_533  and  C7'_536 
REMARK  100  A    between atoms: C2A_552  and  CAA_559 
REMARK  101  A    between atoms: CAA_559  and  CBA_562 
REMARK  102  A    between atoms: CBA_562  and  CGA_565 
REMARK  103  A    between atoms: C3B_570  and  CAB_576 
REMARK  104  A    between atoms: C3C_585  and  CAC_591 
REMARK  105  A    between atoms: C3D_600  and  CAD_606 
REMARK  106  A    between atoms: CAD_606  and  CBD_609 
REMARK  107  A    between atoms: CBD_609  and  CGD_612 
REMARK  108  A    between atoms: C1_623  and  C6_637 
REMARK  109  A    between atoms: C2_624  and  C3_627 
REMARK  110  A    between atoms: C2_624  and  C11_648 
REMARK  111  A    between atoms: C6_637  and  C8_643 
ROOT
HETATM    1  C1  NAG A 661       9.410   7.954  27.449  1.00 56.58     0.196 C 
HETATM    2  C2  NAG A 661       8.148   8.757  27.129  1.00 57.13     0.139 C 
HETATM    3  C3  NAG A 661       8.360  10.213  27.597  1.00 58.75     0.174 C 
HETATM    4  C4  NAG A 661       8.660  10.260  29.120  1.00 59.05     0.180 C 
HETATM    5  C5  NAG A 661       9.855   9.314  29.455  1.00 58.18     0.176 C 
HETATM    6  O5  NAG A 661       9.657   7.982  28.885  1.00 56.64    -0.379 OA
ENDROOT
BRANCH   2   7
HETATM    7  N2  NAG A 661       7.883   8.698  25.704  1.00 56.54    -0.352 N 
HETATM    8  C7  NAG A 661       8.838   9.018  24.823  1.00 56.74     0.214 C 
HETATM    9  C8  NAG A 661       8.800   8.327  23.469  1.00 56.94     0.117 C 
HETATM   10  O7  NAG A 661       9.735   9.840  25.067  1.00 55.51    -0.274 OA
HETATM   11  H2  NAG A 661       6.963   8.412  25.371  1.00  0.00     0.163 HD
ENDBRANCH   2   7
BRANCH   3  12
HETATM   12  O3  NAG A 661       7.201  10.985  27.309  1.00 59.03    -0.391 OA
HETATM   13  H3  NAG A 661       6.772  10.644  26.533  1.00  0.00     0.210 HD
ENDBRANCH   3  12
BRANCH   5  14
HETATM   14  C6  NAG A 661      10.079   9.098  30.941  1.00 57.73     0.198 C 
BRANCH  14  15
HETATM   15  O6  NAG A 661       9.172   9.869  31.721  1.00 57.21    -0.398 OA
HETATM   16  H6  NAG A 661       8.838   9.372  32.459  1.00  0.00     0.209 HD
ENDBRANCH  14  15
ENDBRANCH   5  14
BRANCH   4  17
HETATM   17  O4  NAG A 661       8.973  11.600  29.505  1.00 60.81    -0.390 OA
HETATM   18  H4  NAG A 661       8.226  12.161  29.336  1.00  0.00     0.210 HD
ENDBRANCH   4  17
TORSDOF 111
ENDMDL
MODEL 12
REMARK VINA RESULT:      -4.6      7.071      9.329
REMARK WARNING: 32 MAX_TORS EXCEEDED!!!
REMARK  111 active torsions:
REMARK  status: ('A' for Active; 'I' for Inactive)
REMARK    1  A    between atoms: C2_2  and  N2_7 
REMARK    2  A    between atoms: C3_3  and  O3_12 
REMARK    3  A    between atoms: C4_4  and  O4_17 
REMARK    4  A    between atoms: C5_5  and  C6_14 
REMARK    5  A    between atoms: C6_14  and  O6_15 
REMARK       I    between atoms: C7_8  and  N2_7 
REMARK    6  A    between atoms: C2_33  and  N2_49 
REMARK    7  A    between atoms: C3_35  and  O3_51 
REMARK    8  A    between atoms: C4_37  and  O4_53 
REMARK    9  A    between atoms: C5_39  and  C6_41 
REMARK   10  A    between atoms: C6_41  and  O6_56 
REMARK       I    between atoms: C7_44  and  N2_49 
REMARK   11  A    between atoms: C2_62  and  N2_78 
REMARK   12  A    between atoms: C3_64  and  O3_80 
REMARK   13  A    between atoms: C4_66  and  O4_82 
REMARK   14  A    between atoms: C5_68  and  C6_70 
REMARK   15  A    between atoms: C6_70  and  O6_85 
REMARK       I    between atoms: C7_73  and  N2_78 
REMARK   16  A    between atoms: C2_91  and  N2_107 
REMARK   17  A    between atoms: C3_93  and  O3_109 
REMARK   18  A    between atoms: C4_95  and  O4_111 
REMARK   19  A    between atoms: C5_97  and  C6_99 
REMARK   20  A    between atoms: C6_99  and  O6_114 
REMARK       I    between atoms: C7_102  and  N2_107 
REMARK   21  A    between atoms: C1_117  and  O1_119 
REMARK   22  A    between atoms: O1_119  and  C1'_140 
REMARK   23  A    between atoms: C2_120  and  O2_122 
REMARK   24  A    between atoms: C3_124  and  O3_126 
REMARK   25  A    between atoms: C4_128  and  O4_130 
REMARK   26  A    between atoms: C5_132  and  C6_135 
REMARK   27  A    between atoms: C6_135  and  O6_138 
REMARK   28  A    between atoms: C1'_140  and  C2'_143 
REMARK   29  A    between atoms: C2'_143  and  C3'_146 
REMARK   30  A    between atoms: C3'_146  and  C4'_149 
REMARK   31  A    between atoms: C4'_149  and  C5'_152 
REMARK   32  A    between atoms: C5'_152  and  C6'_155 
REMARK   33  A    between atoms: C6'_155  and  C7'_158 
REMARK   34  A    between atoms: C1_165  and  O1_167 
REMARK   35  A    between atoms: O1_167  and  C1'_188 
REMARK   36  A    between atoms: C2_168  and  O2_170 
REMARK   37  A    between atoms: C3_172  and  O3_174 
REMARK   38  A    between atoms: C4_176  and  O4_178 
REMARK   39  A    between atoms: C5_180  and  C6_183 
REMARK   40  A    between atoms: C6_183  and  O6_186 
REMARK   41  A    between atoms: C1'_188  and  C2'_191 
REMARK   42  A    between atoms: C3'_193  and  C4'_195 
REMARK   43  A    between atoms: C4'_195  and  C5'_198 
REMARK   44  A    between atoms: C5'_198  and  C6'_201 
REMARK   45  A    between atoms: C2_212  and  N2_228 
REMARK   46  A    between atoms: C3_214  and  O3_230 
REMARK   47  A    between atoms: C4_216  and  O4_232 
REMARK   48  A    between atoms: C5_218  and  C6_220 
REMARK   49  A    between atoms: C6_220  and  O6_235 
REMARK       I    between atoms: C7_223  and  N2_228 
REMARK   50  A    between atoms: C2A_247  and  CAA_254 
REMARK   51  A    between atoms: CAA_254  and  CBA_257 
REMARK   52  A    between atoms: CBA_257  and  CGA_260 
REMARK   53  A    between atoms: C3B_265  and  CAB_271 
REMARK   54  A    between atoms: C3C_280  and  CAC_286 
REMARK   55  A    between atoms: C3D_295  and  CAD_301 
REMARK   56  A    between atoms: CAD_301  and  CBD_304 
REMARK   57  A    between atoms: CBD_304  and  CGD_307 
REMARK   58  A    between atoms: C1_318  and  C6_332 
REMARK   59  A    between atoms: C2_319  and  C3_322 
REMARK   60  A    between atoms: C2_319  and  C11_343 
REMARK   61  A    between atoms: C6_332  and  C8_338 
REMARK   62  A    between atoms: C2_353  and  N2_369 
REMARK   63  A    between atoms: C3_355  and  O3_371 
REMARK   64  A    between atoms: C4_357  and  O4_373 
REMARK   65  A    between atoms: C5_359  and  C6_361 
REMARK   66  A    between atoms: C6_361  and  O6_376 
REMARK       I    between atoms: C7_364  and  N2_369 
REMARK   67  A    between atoms: C2_382  and  N2_398 
REMARK   68  A    between atoms: C3_384  and  O3_400 
REMARK   69  A    between atoms: C4_386  and  O4_402 
REMARK   70  A    between atoms: C5_388  and  C6_390 
REMARK   71  A    between atoms: C6_390  and  O6_405 
REMARK       I    between atoms: C7_393  and  N2_398 
REMARK   72  A    between atoms: C2_411  and  N2_427 
REMARK   73  A    between atoms: C3_413  and  O3_429 
REMARK   74  A    between atoms: C4_415  and  O4_431 
REMARK   75  A    between atoms: C5_417  and  C6_419 
REMARK   76  A    between atoms: C6_419  and  O6_434 
REMARK       I    between atoms: C7_422  and  N2_427 
REMARK   77  A    between atoms: C2_440  and  N2_456 
REMARK   78  A    between atoms: C3_442  and  O3_458 
REMARK   79  A    between atoms: C4_444  and  O4_460 
REMARK   80  A    between atoms: C5_446  and  C6_448 
REMARK   81  A    between atoms: C6_448  and  O6_463 
REMARK       I    between atoms: C7_451  and  N2_456 
REMARK   82  A    between atoms: C2_469  and  N2_485 
REMARK   83  A    between atoms: C3_471  and  O3_487 
REMARK   84  A    between atoms: C4_473  and  O4_489 
REMARK   85  A    between atoms: C5_475  and  C6_477 
REMARK   86  A    between atoms: C6_477  and  O6_492 
REMARK       I    between atoms: C7_480  and  N2_485 
REMARK   87  A    between atoms: C1_495  and  O1_497 
REMARK   88  A    between atoms: O1_497  and  C1'_518 
REMARK   89  A    between atoms: C2_498  and  O2_500 
REMARK   90  A    between atoms: C3_502  and  O3_504 
REMARK   91  A    between atoms: C4_506  and  O4_508 
REMARK   92  A    between atoms: C5_510  and  C6_513 
REMARK   93  A    between atoms: C6_513  and  O6_516 
REMARK   94  A    between atoms: C1'_518  and  C2'_521 
REMARK   95  A    between atoms: C2'_521  and  C3'_524 
REMARK   96  A    between atoms: C3'_524  and  C4'_527 
REMARK   97  A    between atoms: C4'_527  and  C5'_530 
REMARK   98  A    between atoms: C5'_530  and  C6'_533 
REMARK   99  A    between atoms: C6'_533  and  C7'_536 
REMARK  100  A    between atoms: C2A_552  and  CAA_559 
REMARK  101  A    between atoms: CAA_559  and  CBA_562 
REMARK  102  A    between atoms: CBA_562  and  CGA_565 
REMARK  103  A    between atoms: C3B_570  and  CAB_576 
REMARK  104  A    between atoms: C3C_585  and  CAC_591 
REMARK  105  A    between atoms: C3D_600  and  CAD_606 
REMARK  106  A    between atoms: CAD_606  and  CBD_609 
REMARK  107  A    between atoms: CBD_609  and  CGD_612 
REMARK  108  A    between atoms: C1_623  and  C6_637 
REMARK  109  A    between atoms: C2_624  and  C3_627 
REMARK  110  A    between atoms: C2_624  and  C11_648 
REMARK  111  A    between atoms: C6_637  and  C8_643 
ROOT
HETATM    1  C1  NAG A 661      10.293   8.309  29.676  1.00 56.58     0.196 C 
HETATM    2  C2  NAG A 661       9.336   9.260  28.956  1.00 57.13     0.139 C 
HETATM    3  C3  NAG A 661       9.281  10.590  29.740  1.00 58.75     0.174 C 
HETATM    4  C4  NAG A 661       8.805  10.344  31.197  1.00 59.05     0.180 C 
HETATM    5  C5  NAG A 661       9.696   9.256  31.872  1.00 58.18     0.176 C 
HETATM    6  O5  NAG A 661       9.812   8.065  31.030  1.00 56.64    -0.379 OA
ENDROOT
BRANCH   2   7
HETATM    7  N2  NAG A 661       9.796   9.473  27.596  1.00 56.54    -0.352 N 
HETATM    8  C7  NAG A 661       9.125   8.949  26.564  1.00 56.74     0.214 C 
HETATM    9  C8  NAG A 661       9.178   9.700  25.242  1.00 56.94     0.117 C 
HETATM   10  O7  NAG A 661       8.476   7.895  26.644  1.00 55.51    -0.274 OA
HETATM   11  H2  NAG A 661      10.636  10.027  27.426  1.00  0.00     0.163 HD
ENDBRANCH   2   7
BRANCH   3  12
HETATM   12  O3  NAG A 661       8.400  11.496  29.090  1.00 59.03    -0.391 OA
HETATM   13  H3  NAG A 661       8.902  12.155  28.624  1.00  0.00     0.210 HD
ENDBRANCH   3  12
BRANCH   5  14
HETATM   14  C6  NAG A 661       9.173   8.767  33.211  1.00 57.73     0.198 C 
BRANCH  14  15
HETATM   15  O6  NAG A 661       9.376   9.735  34.233  1.00 57.21    -0.398 OA
HETATM   16  H6  NAG A 661       8.736  10.435  34.182  1.00  0.00     0.209 HD
ENDBRANCH  14  15
ENDBRANCH   5  14
BRANCH   4  17
HETATM   17  O4  NAG A 661       8.880  11.565  31.936  1.00 60.81    -0.390 OA
HETATM   18  H4  NAG A 661       9.110  12.277  31.351  1.00  0.00     0.210 HD
ENDBRANCH   4  17
TORSDOF 111
ENDMDL
MODEL 13
REMARK VINA RESULT:      -4.6      4.701      6.932
REMARK WARNING: 32 MAX_TORS EXCEEDED!!!
REMARK  111 active torsions:
REMARK  status: ('A' for Active; 'I' for Inactive)
REMARK    1  A    between atoms: C2_2  and  N2_7 
REMARK    2  A    between atoms: C3_3  and  O3_12 
REMARK    3  A    between atoms: C4_4  and  O4_17 
REMARK    4  A    between atoms: C5_5  and  C6_14 
REMARK    5  A    between atoms: C6_14  and  O6_15 
REMARK       I    between atoms: C7_8  and  N2_7 
REMARK    6  A    between atoms: C2_33  and  N2_49 
REMARK    7  A    between atoms: C3_35  and  O3_51 
REMARK    8  A    between atoms: C4_37  and  O4_53 
REMARK    9  A    between atoms: C5_39  and  C6_41 
REMARK   10  A    between atoms: C6_41  and  O6_56 
REMARK       I    between atoms: C7_44  and  N2_49 
REMARK   11  A    between atoms: C2_62  and  N2_78 
REMARK   12  A    between atoms: C3_64  and  O3_80 
REMARK   13  A    between atoms: C4_66  and  O4_82 
REMARK   14  A    between atoms: C5_68  and  C6_70 
REMARK   15  A    between atoms: C6_70  and  O6_85 
REMARK       I    between atoms: C7_73  and  N2_78 
REMARK   16  A    between atoms: C2_91  and  N2_107 
REMARK   17  A    between atoms: C3_93  and  O3_109 
REMARK   18  A    between atoms: C4_95  and  O4_111 
REMARK   19  A    between atoms: C5_97  and  C6_99 
REMARK   20  A    between atoms: C6_99  and  O6_114 
REMARK       I    between atoms: C7_102  and  N2_107 
REMARK   21  A    between atoms: C1_117  and  O1_119 
REMARK   22  A    between atoms: O1_119  and  C1'_140 
REMARK   23  A    between atoms: C2_120  and  O2_122 
REMARK   24  A    between atoms: C3_124  and  O3_126 
REMARK   25  A    between atoms: C4_128  and  O4_130 
REMARK   26  A    between atoms: C5_132  and  C6_135 
REMARK   27  A    between atoms: C6_135  and  O6_138 
REMARK   28  A    between atoms: C1'_140  and  C2'_143 
REMARK   29  A    between atoms: C2'_143  and  C3'_146 
REMARK   30  A    between atoms: C3'_146  and  C4'_149 
REMARK   31  A    between atoms: C4'_149  and  C5'_152 
REMARK   32  A    between atoms: C5'_152  and  C6'_155 
REMARK   33  A    between atoms: C6'_155  and  C7'_158 
REMARK   34  A    between atoms: C1_165  and  O1_167 
REMARK   35  A    between atoms: O1_167  and  C1'_188 
REMARK   36  A    between atoms: C2_168  and  O2_170 
REMARK   37  A    between atoms: C3_172  and  O3_174 
REMARK   38  A    between atoms: C4_176  and  O4_178 
REMARK   39  A    between atoms: C5_180  and  C6_183 
REMARK   40  A    between atoms: C6_183  and  O6_186 
REMARK   41  A    between atoms: C1'_188  and  C2'_191 
REMARK   42  A    between atoms: C3'_193  and  C4'_195 
REMARK   43  A    between atoms: C4'_195  and  C5'_198 
REMARK   44  A    between atoms: C5'_198  and  C6'_201 
REMARK   45  A    between atoms: C2_212  and  N2_228 
REMARK   46  A    between atoms: C3_214  and  O3_230 
REMARK   47  A    between atoms: C4_216  and  O4_232 
REMARK   48  A    between atoms: C5_218  and  C6_220 
REMARK   49  A    between atoms: C6_220  and  O6_235 
REMARK       I    between atoms: C7_223  and  N2_228 
REMARK   50  A    between atoms: C2A_247  and  CAA_254 
REMARK   51  A    between atoms: CAA_254  and  CBA_257 
REMARK   52  A    between atoms: CBA_257  and  CGA_260 
REMARK   53  A    between atoms: C3B_265  and  CAB_271 
REMARK   54  A    between atoms: C3C_280  and  CAC_286 
REMARK   55  A    between atoms: C3D_295  and  CAD_301 
REMARK   56  A    between atoms: CAD_301  and  CBD_304 
REMARK   57  A    between atoms: CBD_304  and  CGD_307 
REMARK   58  A    between atoms: C1_318  and  C6_332 
REMARK   59  A    between atoms: C2_319  and  C3_322 
REMARK   60  A    between atoms: C2_319  and  C11_343 
REMARK   61  A    between atoms: C6_332  and  C8_338 
REMARK   62  A    between atoms: C2_353  and  N2_369 
REMARK   63  A    between atoms: C3_355  and  O3_371 
REMARK   64  A    between atoms: C4_357  and  O4_373 
REMARK   65  A    between atoms: C5_359  and  C6_361 
REMARK   66  A    between atoms: C6_361  and  O6_376 
REMARK       I    between atoms: C7_364  and  N2_369 
REMARK   67  A    between atoms: C2_382  and  N2_398 
REMARK   68  A    between atoms: C3_384  and  O3_400 
REMARK   69  A    between atoms: C4_386  and  O4_402 
REMARK   70  A    between atoms: C5_388  and  C6_390 
REMARK   71  A    between atoms: C6_390  and  O6_405 
REMARK       I    between atoms: C7_393  and  N2_398 
REMARK   72  A    between atoms: C2_411  and  N2_427 
REMARK   73  A    between atoms: C3_413  and  O3_429 
REMARK   74  A    between atoms: C4_415  and  O4_431 
REMARK   75  A    between atoms: C5_417  and  C6_419 
REMARK   76  A    between atoms: C6_419  and  O6_434 
REMARK       I    between atoms: C7_422  and  N2_427 
REMARK   77  A    between atoms: C2_440  and  N2_456 
REMARK   78  A    between atoms: C3_442  and  O3_458 
REMARK   79  A    between atoms: C4_444  and  O4_460 
REMARK   80  A    between atoms: C5_446  and  C6_448 
REMARK   81  A    between atoms: C6_448  and  O6_463 
REMARK       I    between atoms: C7_451  and  N2_456 
REMARK   82  A    between atoms: C2_469  and  N2_485 
REMARK   83  A    between atoms: C3_471  and  O3_487 
REMARK   84  A    between atoms: C4_473  and  O4_489 
REMARK   85  A    between atoms: C5_475  and  C6_477 
REMARK   86  A    between atoms: C6_477  and  O6_492 
REMARK       I    between atoms: C7_480  and  N2_485 
REMARK   87  A    between atoms: C1_495  and  O1_497 
REMARK   88  A    between atoms: O1_497  and  C1'_518 
REMARK   89  A    between atoms: C2_498  and  O2_500 
REMARK   90  A    between atoms: C3_502  and  O3_504 
REMARK   91  A    between atoms: C4_506  and  O4_508 
REMARK   92  A    between atoms: C5_510  and  C6_513 
REMARK   93  A    between atoms: C6_513  and  O6_516 
REMARK   94  A    between atoms: C1'_518  and  C2'_521 
REMARK   95  A    between atoms: C2'_521  and  C3'_524 
REMARK   96  A    between atoms: C3'_524  and  C4'_527 
REMARK   97  A    between atoms: C4'_527  and  C5'_530 
REMARK   98  A    between atoms: C5'_530  and  C6'_533 
REMARK   99  A    between atoms: C6'_533  and  C7'_536 
REMARK  100  A    between atoms: C2A_552  and  CAA_559 
REMARK  101  A    between atoms: CAA_559  and  CBA_562 
REMARK  102  A    between atoms: CBA_562  and  CGA_565 
REMARK  103  A    between atoms: C3B_570  and  CAB_576 
REMARK  104  A    between atoms: C3C_585  and  CAC_591 
REMARK  105  A    between atoms: C3D_600  and  CAD_606 
REMARK  106  A    between atoms: CAD_606  and  CBD_609 
REMARK  107  A    between atoms: CBD_609  and  CGD_612 
REMARK  108  A    between atoms: C1_623  and  C6_637 
REMARK  109  A    between atoms: C2_624  and  C3_627 
REMARK  110  A    between atoms: C2_624  and  C11_648 
REMARK  111  A    between atoms: C6_637  and  C8_643 
ROOT
HETATM    1  C1  NAG A 661       7.143   8.537  26.926  1.00 56.58     0.196 C 
HETATM    2  C2  NAG A 661       7.581   8.285  25.482  1.00 57.13     0.139 C 
HETATM    3  C3  NAG A 661       8.663   9.322  25.109  1.00 58.75     0.174 C 
HETATM    4  C4  NAG A 661       8.113  10.765  25.264  1.00 59.05     0.180 C 
HETATM    5  C5  NAG A 661       7.527  10.960  26.696  1.00 58.18     0.176 C 
HETATM    6  O5  NAG A 661       6.600   9.884  27.044  1.00 56.64    -0.379 OA
ENDROOT
BRANCH   2   7
HETATM    7  N2  NAG A 661       8.088   6.931  25.357  1.00 56.54    -0.352 N 
HETATM    8  C7  NAG A 661       8.849   6.401  26.322  1.00 56.74     0.214 C 
HETATM    9  C8  NAG A 661       8.781   4.894  26.517  1.00 56.94     0.117 C 
HETATM   10  O7  NAG A 661       9.592   7.080  27.047  1.00 55.51    -0.274 OA
HETATM   11  H2  NAG A 661       7.862   6.380  24.530  1.00  0.00     0.163 HD
ENDBRANCH   2   7
BRANCH   3  12
HETATM   12  O3  NAG A 661       9.092   9.109  23.771  1.00 59.03    -0.391 OA
HETATM   13  H3  NAG A 661       9.515   9.893  23.439  1.00  0.00     0.210 HD
ENDBRANCH   3  12
BRANCH   5  14
HETATM   14  C6  NAG A 661       6.750  12.251  26.880  1.00 57.73     0.198 C 
BRANCH  14  15
HETATM   15  O6  NAG A 661       7.544  13.387  26.558  1.00 57.21    -0.398 OA
HETATM   16  H6  NAG A 661       8.359  13.392  27.047  1.00  0.00     0.209 HD
ENDBRANCH  14  15
ENDBRANCH   5  14
BRANCH   4  17
HETATM   17  O4  NAG A 661       9.165  11.705  25.033  1.00 60.81    -0.390 OA
HETATM   18  H4  NAG A 661       9.849  11.295  24.516  1.00  0.00     0.210 HD
ENDBRANCH   4  17
TORSDOF 111
ENDMDL
MODEL 14
REMARK VINA RESULT:      -4.5      3.628      5.790
REMARK WARNING: 32 MAX_TORS EXCEEDED!!!
REMARK  111 active torsions:
REMARK  status: ('A' for Active; 'I' for Inactive)
REMARK    1  A    between atoms: C2_2  and  N2_7 
REMARK    2  A    between atoms: C3_3  and  O3_12 
REMARK    3  A    between atoms: C4_4  and  O4_17 
REMARK    4  A    between atoms: C5_5  and  C6_14 
REMARK    5  A    between atoms: C6_14  and  O6_15 
REMARK       I    between atoms: C7_8  and  N2_7 
REMARK    6  A    between atoms: C2_33  and  N2_49 
REMARK    7  A    between atoms: C3_35  and  O3_51 
REMARK    8  A    between atoms: C4_37  and  O4_53 
REMARK    9  A    between atoms: C5_39  and  C6_41 
REMARK   10  A    between atoms: C6_41  and  O6_56 
REMARK       I    between atoms: C7_44  and  N2_49 
REMARK   11  A    between atoms: C2_62  and  N2_78 
REMARK   12  A    between atoms: C3_64  and  O3_80 
REMARK   13  A    between atoms: C4_66  and  O4_82 
REMARK   14  A    between atoms: C5_68  and  C6_70 
REMARK   15  A    between atoms: C6_70  and  O6_85 
REMARK       I    between atoms: C7_73  and  N2_78 
REMARK   16  A    between atoms: C2_91  and  N2_107 
REMARK   17  A    between atoms: C3_93  and  O3_109 
REMARK   18  A    between atoms: C4_95  and  O4_111 
REMARK   19  A    between atoms: C5_97  and  C6_99 
REMARK   20  A    between atoms: C6_99  and  O6_114 
REMARK       I    between atoms: C7_102  and  N2_107 
REMARK   21  A    between atoms: C1_117  and  O1_119 
REMARK   22  A    between atoms: O1_119  and  C1'_140 
REMARK   23  A    between atoms: C2_120  and  O2_122 
REMARK   24  A    between atoms: C3_124  and  O3_126 
REMARK   25  A    between atoms: C4_128  and  O4_130 
REMARK   26  A    between atoms: C5_132  and  C6_135 
REMARK   27  A    between atoms: C6_135  and  O6_138 
REMARK   28  A    between atoms: C1'_140  and  C2'_143 
REMARK   29  A    between atoms: C2'_143  and  C3'_146 
REMARK   30  A    between atoms: C3'_146  and  C4'_149 
REMARK   31  A    between atoms: C4'_149  and  C5'_152 
REMARK   32  A    between atoms: C5'_152  and  C6'_155 
REMARK   33  A    between atoms: C6'_155  and  C7'_158 
REMARK   34  A    between atoms: C1_165  and  O1_167 
REMARK   35  A    between atoms: O1_167  and  C1'_188 
REMARK   36  A    between atoms: C2_168  and  O2_170 
REMARK   37  A    between atoms: C3_172  and  O3_174 
REMARK   38  A    between atoms: C4_176  and  O4_178 
REMARK   39  A    between atoms: C5_180  and  C6_183 
REMARK   40  A    between atoms: C6_183  and  O6_186 
REMARK   41  A    between atoms: C1'_188  and  C2'_191 
REMARK   42  A    between atoms: C3'_193  and  C4'_195 
REMARK   43  A    between atoms: C4'_195  and  C5'_198 
REMARK   44  A    between atoms: C5'_198  and  C6'_201 
REMARK   45  A    between atoms: C2_212  and  N2_228 
REMARK   46  A    between atoms: C3_214  and  O3_230 
REMARK   47  A    between atoms: C4_216  and  O4_232 
REMARK   48  A    between atoms: C5_218  and  C6_220 
REMARK   49  A    between atoms: C6_220  and  O6_235 
REMARK       I    between atoms: C7_223  and  N2_228 
REMARK   50  A    between atoms: C2A_247  and  CAA_254 
REMARK   51  A    between atoms: CAA_254  and  CBA_257 
REMARK   52  A    between atoms: CBA_257  and  CGA_260 
REMARK   53  A    between atoms: C3B_265  and  CAB_271 
REMARK   54  A    between atoms: C3C_280  and  CAC_286 
REMARK   55  A    between atoms: C3D_295  and  CAD_301 
REMARK   56  A    between atoms: CAD_301  and  CBD_304 
REMARK   57  A    between atoms: CBD_304  and  CGD_307 
REMARK   58  A    between atoms: C1_318  and  C6_332 
REMARK   59  A    between atoms: C2_319  and  C3_322 
REMARK   60  A    between atoms: C2_319  and  C11_343 
REMARK   61  A    between atoms: C6_332  and  C8_338 
REMARK   62  A    between atoms: C2_353  and  N2_369 
REMARK   63  A    between atoms: C3_355  and  O3_371 
REMARK   64  A    between atoms: C4_357  and  O4_373 
REMARK   65  A    between atoms: C5_359  and  C6_361 
REMARK   66  A    between atoms: C6_361  and  O6_376 
REMARK       I    between atoms: C7_364  and  N2_369 
REMARK   67  A    between atoms: C2_382  and  N2_398 
REMARK   68  A    between atoms: C3_384  and  O3_400 
REMARK   69  A    between atoms: C4_386  and  O4_402 
REMARK   70  A    between atoms: C5_388  and  C6_390 
REMARK   71  A    between atoms: C6_390  and  O6_405 
REMARK       I    between atoms: C7_393  and  N2_398 
REMARK   72  A    between atoms: C2_411  and  N2_427 
REMARK   73  A    between atoms: C3_413  and  O3_429 
REMARK   74  A    between atoms: C4_415  and  O4_431 
REMARK   75  A    between atoms: C5_417  and  C6_419 
REMARK   76  A    between atoms: C6_419  and  O6_434 
REMARK       I    between atoms: C7_422  and  N2_427 
REMARK   77  A    between atoms: C2_440  and  N2_456 
REMARK   78  A    between atoms: C3_442  and  O3_458 
REMARK   79  A    between atoms: C4_444  and  O4_460 
REMARK   80  A    between atoms: C5_446  and  C6_448 
REMARK   81  A    between atoms: C6_448  and  O6_463 
REMARK       I    between atoms: C7_451  and  N2_456 
REMARK   82  A    between atoms: C2_469  and  N2_485 
REMARK   83  A    between atoms: C3_471  and  O3_487 
REMARK   84  A    between atoms: C4_473  and  O4_489 
REMARK   85  A    between atoms: C5_475  and  C6_477 
REMARK   86  A    between atoms: C6_477  and  O6_492 
REMARK       I    between atoms: C7_480  and  N2_485 
REMARK   87  A    between atoms: C1_495  and  O1_497 
REMARK   88  A    between atoms: O1_497  and  C1'_518 
REMARK   89  A    between atoms: C2_498  and  O2_500 
REMARK   90  A    between atoms: C3_502  and  O3_504 
REMARK   91  A    between atoms: C4_506  and  O4_508 
REMARK   92  A    between atoms: C5_510  and  C6_513 
REMARK   93  A    between atoms: C6_513  and  O6_516 
REMARK   94  A    between atoms: C1'_518  and  C2'_521 
REMARK   95  A    between atoms: C2'_521  and  C3'_524 
REMARK   96  A    between atoms: C3'_524  and  C4'_527 
REMARK   97  A    between atoms: C4'_527  and  C5'_530 
REMARK   98  A    between atoms: C5'_530  and  C6'_533 
REMARK   99  A    between atoms: C6'_533  and  C7'_536 
REMARK  100  A    between atoms: C2A_552  and  CAA_559 
REMARK  101  A    between atoms: CAA_559  and  CBA_562 
REMARK  102  A    between atoms: CBA_562  and  CGA_565 
REMARK  103  A    between atoms: C3B_570  and  CAB_576 
REMARK  104  A    between atoms: C3C_585  and  CAC_591 
REMARK  105  A    between atoms: C3D_600  and  CAD_606 
REMARK  106  A    between atoms: CAD_606  and  CBD_609 
REMARK  107  A    between atoms: CBD_609  and  CGD_612 
REMARK  108  A    between atoms: C1_623  and  C6_637 
REMARK  109  A    between atoms: C2_624  and  C3_627 
REMARK  110  A    between atoms: C2_624  and  C11_648 
REMARK  111  A    between atoms: C6_637  and  C8_643 
ROOT
HETATM    1  C1  NAG A 661       7.875  11.133  27.399  1.00 56.58     0.196 C 
HETATM    2  C2  NAG A 661       7.859  10.071  26.299  1.00 57.13     0.139 C 
HETATM    3  C3  NAG A 661       8.386  10.706  24.994  1.00 58.75     0.174 C 
HETATM    4  C4  NAG A 661       7.510  11.922  24.586  1.00 59.05     0.180 C 
HETATM    5  C5  NAG A 661       7.408  12.927  25.775  1.00 58.18     0.176 C 
HETATM    6  O5  NAG A 661       7.023  12.250  27.013  1.00 56.64    -0.379 OA
ENDROOT
BRANCH   2   7
HETATM    7  N2  NAG A 661       8.679   8.943  26.701  1.00 56.54    -0.352 N 
HETATM    8  C7  NAG A 661       8.202   7.695  26.620  1.00 56.74     0.214 C 
HETATM    9  C8  NAG A 661       9.204   6.579  26.371  1.00 56.94     0.117 C 
HETATM   10  O7  NAG A 661       6.998   7.423  26.738  1.00 55.51    -0.274 OA
HETATM   11  H2  NAG A 661       9.625   9.102  27.046  1.00  0.00     0.163 HD
ENDBRANCH   2   7
BRANCH   3  12
HETATM   12  O3  NAG A 661       8.386   9.739  23.953  1.00 59.03    -0.391 OA
HETATM   13  H3  NAG A 661       8.644  10.146  23.134  1.00  0.00     0.210 HD
ENDBRANCH   3  12
BRANCH   5  14
HETATM   14  C6  NAG A 661       6.386  14.030  25.571  1.00 57.73     0.198 C 
BRANCH  14  15
HETATM   15  O6  NAG A 661       6.476  14.588  24.265  1.00 57.21    -0.398 OA
HETATM   16  H6  NAG A 661       5.617  14.782  23.909  1.00  0.00     0.209 HD
ENDBRANCH  14  15
ENDBRANCH   5  14
BRANCH   4  17
HETATM   17  O4  NAG A 661       8.087  12.566  23.449  1.00 60.81    -0.390 OA
HETATM   18  H4  NAG A 661       7.659  12.260  22.658  1.00  0.00     0.210 HD
ENDBRANCH   4  17
TORSDOF 111
ENDMDL
MODEL 15
REMARK VINA RESULT:      -4.5      3.811      5.931
REMARK WARNING: 32 MAX_TORS EXCEEDED!!!
REMARK  111 active torsions:
REMARK  status: ('A' for Active; 'I' for Inactive)
REMARK    1  A    between atoms: C2_2  and  N2_7 
REMARK    2  A    between atoms: C3_3  and  O3_12 
REMARK    3  A    between atoms: C4_4  and  O4_17 
REMARK    4  A    between atoms: C5_5  and  C6_14 
REMARK    5  A    between atoms: C6_14  and  O6_15 
REMARK       I    between atoms: C7_8  and  N2_7 
REMARK    6  A    between atoms: C2_33  and  N2_49 
REMARK    7  A    between atoms: C3_35  and  O3_51 
REMARK    8  A    between atoms: C4_37  and  O4_53 
REMARK    9  A    between atoms: C5_39  and  C6_41 
REMARK   10  A    between atoms: C6_41  and  O6_56 
REMARK       I    between atoms: C7_44  and  N2_49 
REMARK   11  A    between atoms: C2_62  and  N2_78 
REMARK   12  A    between atoms: C3_64  and  O3_80 
REMARK   13  A    between atoms: C4_66  and  O4_82 
REMARK   14  A    between atoms: C5_68  and  C6_70 
REMARK   15  A    between atoms: C6_70  and  O6_85 
REMARK       I    between atoms: C7_73  and  N2_78 
REMARK   16  A    between atoms: C2_91  and  N2_107 
REMARK   17  A    between atoms: C3_93  and  O3_109 
REMARK   18  A    between atoms: C4_95  and  O4_111 
REMARK   19  A    between atoms: C5_97  and  C6_99 
REMARK   20  A    between atoms: C6_99  and  O6_114 
REMARK       I    between atoms: C7_102  and  N2_107 
REMARK   21  A    between atoms: C1_117  and  O1_119 
REMARK   22  A    between atoms: O1_119  and  C1'_140 
REMARK   23  A    between atoms: C2_120  and  O2_122 
REMARK   24  A    between atoms: C3_124  and  O3_126 
REMARK   25  A    between atoms: C4_128  and  O4_130 
REMARK   26  A    between atoms: C5_132  and  C6_135 
REMARK   27  A    between atoms: C6_135  and  O6_138 
REMARK   28  A    between atoms: C1'_140  and  C2'_143 
REMARK   29  A    between atoms: C2'_143  and  C3'_146 
REMARK   30  A    between atoms: C3'_146  and  C4'_149 
REMARK   31  A    between atoms: C4'_149  and  C5'_152 
REMARK   32  A    between atoms: C5'_152  and  C6'_155 
REMARK   33  A    between atoms: C6'_155  and  C7'_158 
REMARK   34  A    between atoms: C1_165  and  O1_167 
REMARK   35  A    between atoms: O1_167  and  C1'_188 
REMARK   36  A    between atoms: C2_168  and  O2_170 
REMARK   37  A    between atoms: C3_172  and  O3_174 
REMARK   38  A    between atoms: C4_176  and  O4_178 
REMARK   39  A    between atoms: C5_180  and  C6_183 
REMARK   40  A    between atoms: C6_183  and  O6_186 
REMARK   41  A    between atoms: C1'_188  and  C2'_191 
REMARK   42  A    between atoms: C3'_193  and  C4'_195 
REMARK   43  A    between atoms: C4'_195  and  C5'_198 
REMARK   44  A    between atoms: C5'_198  and  C6'_201 
REMARK   45  A    between atoms: C2_212  and  N2_228 
REMARK   46  A    between atoms: C3_214  and  O3_230 
REMARK   47  A    between atoms: C4_216  and  O4_232 
REMARK   48  A    between atoms: C5_218  and  C6_220 
REMARK   49  A    between atoms: C6_220  and  O6_235 
REMARK       I    between atoms: C7_223  and  N2_228 
REMARK   50  A    between atoms: C2A_247  and  CAA_254 
REMARK   51  A    between atoms: CAA_254  and  CBA_257 
REMARK   52  A    between atoms: CBA_257  and  CGA_260 
REMARK   53  A    between atoms: C3B_265  and  CAB_271 
REMARK   54  A    between atoms: C3C_280  and  CAC_286 
REMARK   55  A    between atoms: C3D_295  and  CAD_301 
REMARK   56  A    between atoms: CAD_301  and  CBD_304 
REMARK   57  A    between atoms: CBD_304  and  CGD_307 
REMARK   58  A    between atoms: C1_318  and  C6_332 
REMARK   59  A    between atoms: C2_319  and  C3_322 
REMARK   60  A    between atoms: C2_319  and  C11_343 
REMARK   61  A    between atoms: C6_332  and  C8_338 
REMARK   62  A    between atoms: C2_353  and  N2_369 
REMARK   63  A    between atoms: C3_355  and  O3_371 
REMARK   64  A    between atoms: C4_357  and  O4_373 
REMARK   65  A    between atoms: C5_359  and  C6_361 
REMARK   66  A    between atoms: C6_361  and  O6_376 
REMARK       I    between atoms: C7_364  and  N2_369 
REMARK   67  A    between atoms: C2_382  and  N2_398 
REMARK   68  A    between atoms: C3_384  and  O3_400 
REMARK   69  A    between atoms: C4_386  and  O4_402 
REMARK   70  A    between atoms: C5_388  and  C6_390 
REMARK   71  A    between atoms: C6_390  and  O6_405 
REMARK       I    between atoms: C7_393  and  N2_398 
REMARK   72  A    between atoms: C2_411  and  N2_427 
REMARK   73  A    between atoms: C3_413  and  O3_429 
REMARK   74  A    between atoms: C4_415  and  O4_431 
REMARK   75  A    between atoms: C5_417  and  C6_419 
REMARK   76  A    between atoms: C6_419  and  O6_434 
REMARK       I    between atoms: C7_422  and  N2_427 
REMARK   77  A    between atoms: C2_440  and  N2_456 
REMARK   78  A    between atoms: C3_442  and  O3_458 
REMARK   79  A    between atoms: C4_444  and  O4_460 
REMARK   80  A    between atoms: C5_446  and  C6_448 
REMARK   81  A    between atoms: C6_448  and  O6_463 
REMARK       I    between atoms: C7_451  and  N2_456 
REMARK   82  A    between atoms: C2_469  and  N2_485 
REMARK   83  A    between atoms: C3_471  and  O3_487 
REMARK   84  A    between atoms: C4_473  and  O4_489 
REMARK   85  A    between atoms: C5_475  and  C6_477 
REMARK   86  A    between atoms: C6_477  and  O6_492 
REMARK       I    between atoms: C7_480  and  N2_485 
REMARK   87  A    between atoms: C1_495  and  O1_497 
REMARK   88  A    between atoms: O1_497  and  C1'_518 
REMARK   89  A    between atoms: C2_498  and  O2_500 
REMARK   90  A    between atoms: C3_502  and  O3_504 
REMARK   91  A    between atoms: C4_506  and  O4_508 
REMARK   92  A    between atoms: C5_510  and  C6_513 
REMARK   93  A    between atoms: C6_513  and  O6_516 
REMARK   94  A    between atoms: C1'_518  and  C2'_521 
REMARK   95  A    between atoms: C2'_521  and  C3'_524 
REMARK   96  A    between atoms: C3'_524  and  C4'_527 
REMARK   97  A    between atoms: C4'_527  and  C5'_530 
REMARK   98  A    between atoms: C5'_530  and  C6'_533 
REMARK   99  A    between atoms: C6'_533  and  C7'_536 
REMARK  100  A    between atoms: C2A_552  and  CAA_559 
REMARK  101  A    between atoms: CAA_559  and  CBA_562 
REMARK  102  A    between atoms: CBA_562  and  CGA_565 
REMARK  103  A    between atoms: C3B_570  and  CAB_576 
REMARK  104  A    between atoms: C3C_585  and  CAC_591 
REMARK  105  A    between atoms: C3D_600  and  CAD_606 
REMARK  106  A    between atoms: CAD_606  and  CBD_609 
REMARK  107  A    between atoms: CBD_609  and  CGD_612 
REMARK  108  A    between atoms: C1_623  and  C6_637 
REMARK  109  A    between atoms: C2_624  and  C3_627 
REMARK  110  A    between atoms: C2_624  and  C11_648 
REMARK  111  A    between atoms: C6_637  and  C8_643 
ROOT
HETATM    1  C1  NAG A 661       7.155  11.841  27.235  1.00 56.58     0.196 C 
HETATM    2  C2  NAG A 661       7.678  11.738  25.801  1.00 57.13     0.139 C 
HETATM    3  C3  NAG A 661       8.036  10.264  25.512  1.00 58.75     0.174 C 
HETATM    4  C4  NAG A 661       9.106   9.756  26.516  1.00 59.05     0.180 C 
HETATM    5  C5  NAG A 661       8.626  10.009  27.979  1.00 58.18     0.176 C 
HETATM    6  O5  NAG A 661       8.184  11.390  28.164  1.00 56.64    -0.379 OA
ENDROOT
BRANCH   2   7
HETATM    7  N2  NAG A 661       6.666  12.221  24.880  1.00 56.54    -0.352 N 
HETATM    8  C7  NAG A 661       6.699  13.484  24.438  1.00 56.74     0.214 C 
HETATM    9  C8  NAG A 661       6.131  13.754  23.053  1.00 56.94     0.117 C 
HETATM   10  O7  NAG A 661       7.167  14.421  25.102  1.00 55.51    -0.274 OA
HETATM   11  H2  NAG A 661       5.925  11.594  24.567  1.00  0.00     0.163 HD
ENDBRANCH   2   7
BRANCH   3  12
HETATM   12  O3  NAG A 661       8.523  10.139  24.183  1.00 59.03    -0.391 OA
HETATM   13  H3  NAG A 661       8.978   9.311  24.083  1.00  0.00     0.210 HD
ENDBRANCH   3  12
BRANCH   5  14
HETATM   14  C6  NAG A 661       9.691   9.770  29.033  1.00 57.73     0.198 C 
BRANCH  14  15
HETATM   15  O6  NAG A 661       9.132   9.736  30.340  1.00 57.21    -0.398 OA
HETATM   16  H6  NAG A 661       9.658   9.209  30.931  1.00  0.00     0.209 HD
ENDBRANCH  14  15
ENDBRANCH   5  14
BRANCH   4  17
HETATM   17  O4  NAG A 661       9.331   8.360  26.309  1.00 60.81    -0.390 OA
HETATM   18  H4  NAG A 661       9.169   8.144  25.398  1.00  0.00     0.210 HD
ENDBRANCH   4  17
TORSDOF 111
ENDMDL
MODEL 16
REMARK VINA RESULT:      -4.4      3.057      4.864
REMARK WARNING: 32 MAX_TORS EXCEEDED!!!
REMARK  111 active torsions:
REMARK  status: ('A' for Active; 'I' for Inactive)
REMARK    1  A    between atoms: C2_2  and  N2_7 
REMARK    2  A    between atoms: C3_3  and  O3_12 
REMARK    3  A    between atoms: C4_4  and  O4_17 
REMARK    4  A    between atoms: C5_5  and  C6_14 
REMARK    5  A    between atoms: C6_14  and  O6_15 
REMARK       I    between atoms: C7_8  and  N2_7 
REMARK    6  A    between atoms: C2_33  and  N2_49 
REMARK    7  A    between atoms: C3_35  and  O3_51 
REMARK    8  A    between atoms: C4_37  and  O4_53 
REMARK    9  A    between atoms: C5_39  and  C6_41 
REMARK   10  A    between atoms: C6_41  and  O6_56 
REMARK       I    between atoms: C7_44  and  N2_49 
REMARK   11  A    between atoms: C2_62  and  N2_78 
REMARK   12  A    between atoms: C3_64  and  O3_80 
REMARK   13  A    between atoms: C4_66  and  O4_82 
REMARK   14  A    between atoms: C5_68  and  C6_70 
REMARK   15  A    between atoms: C6_70  and  O6_85 
REMARK       I    between atoms: C7_73  and  N2_78 
REMARK   16  A    between atoms: C2_91  and  N2_107 
REMARK   17  A    between atoms: C3_93  and  O3_109 
REMARK   18  A    between atoms: C4_95  and  O4_111 
REMARK   19  A    between atoms: C5_97  and  C6_99 
REMARK   20  A    between atoms: C6_99  and  O6_114 
REMARK       I    between atoms: C7_102  and  N2_107 
REMARK   21  A    between atoms: C1_117  and  O1_119 
REMARK   22  A    between atoms: O1_119  and  C1'_140 
REMARK   23  A    between atoms: C2_120  and  O2_122 
REMARK   24  A    between atoms: C3_124  and  O3_126 
REMARK   25  A    between atoms: C4_128  and  O4_130 
REMARK   26  A    between atoms: C5_132  and  C6_135 
REMARK   27  A    between atoms: C6_135  and  O6_138 
REMARK   28  A    between atoms: C1'_140  and  C2'_143 
REMARK   29  A    between atoms: C2'_143  and  C3'_146 
REMARK   30  A    between atoms: C3'_146  and  C4'_149 
REMARK   31  A    between atoms: C4'_149  and  C5'_152 
REMARK   32  A    between atoms: C5'_152  and  C6'_155 
REMARK   33  A    between atoms: C6'_155  and  C7'_158 
REMARK   34  A    between atoms: C1_165  and  O1_167 
REMARK   35  A    between atoms: O1_167  and  C1'_188 
REMARK   36  A    between atoms: C2_168  and  O2_170 
REMARK   37  A    between atoms: C3_172  and  O3_174 
REMARK   38  A    between atoms: C4_176  and  O4_178 
REMARK   39  A    between atoms: C5_180  and  C6_183 
REMARK   40  A    between atoms: C6_183  and  O6_186 
REMARK   41  A    between atoms: C1'_188  and  C2'_191 
REMARK   42  A    between atoms: C3'_193  and  C4'_195 
REMARK   43  A    between atoms: C4'_195  and  C5'_198 
REMARK   44  A    between atoms: C5'_198  and  C6'_201 
REMARK   45  A    between atoms: C2_212  and  N2_228 
REMARK   46  A    between atoms: C3_214  and  O3_230 
REMARK   47  A    between atoms: C4_216  and  O4_232 
REMARK   48  A    between atoms: C5_218  and  C6_220 
REMARK   49  A    between atoms: C6_220  and  O6_235 
REMARK       I    between atoms: C7_223  and  N2_228 
REMARK   50  A    between atoms: C2A_247  and  CAA_254 
REMARK   51  A    between atoms: CAA_254  and  CBA_257 
REMARK   52  A    between atoms: CBA_257  and  CGA_260 
REMARK   53  A    between atoms: C3B_265  and  CAB_271 
REMARK   54  A    between atoms: C3C_280  and  CAC_286 
REMARK   55  A    between atoms: C3D_295  and  CAD_301 
REMARK   56  A    between atoms: CAD_301  and  CBD_304 
REMARK   57  A    between atoms: CBD_304  and  CGD_307 
REMARK   58  A    between atoms: C1_318  and  C6_332 
REMARK   59  A    between atoms: C2_319  and  C3_322 
REMARK   60  A    between atoms: C2_319  and  C11_343 
REMARK   61  A    between atoms: C6_332  and  C8_338 
REMARK   62  A    between atoms: C2_353  and  N2_369 
REMARK   63  A    between atoms: C3_355  and  O3_371 
REMARK   64  A    between atoms: C4_357  and  O4_373 
REMARK   65  A    between atoms: C5_359  and  C6_361 
REMARK   66  A    between atoms: C6_361  and  O6_376 
REMARK       I    between atoms: C7_364  and  N2_369 
REMARK   67  A    between atoms: C2_382  and  N2_398 
REMARK   68  A    between atoms: C3_384  and  O3_400 
REMARK   69  A    between atoms: C4_386  and  O4_402 
REMARK   70  A    between atoms: C5_388  and  C6_390 
REMARK   71  A    between atoms: C6_390  and  O6_405 
REMARK       I    between atoms: C7_393  and  N2_398 
REMARK   72  A    between atoms: C2_411  and  N2_427 
REMARK   73  A    between atoms: C3_413  and  O3_429 
REMARK   74  A    between atoms: C4_415  and  O4_431 
REMARK   75  A    between atoms: C5_417  and  C6_419 
REMARK   76  A    between atoms: C6_419  and  O6_434 
REMARK       I    between atoms: C7_422  and  N2_427 
REMARK   77  A    between atoms: C2_440  and  N2_456 
REMARK   78  A    between atoms: C3_442  and  O3_458 
REMARK   79  A    between atoms: C4_444  and  O4_460 
REMARK   80  A    between atoms: C5_446  and  C6_448 
REMARK   81  A    between atoms: C6_448  and  O6_463 
REMARK       I    between atoms: C7_451  and  N2_456 
REMARK   82  A    between atoms: C2_469  and  N2_485 
REMARK   83  A    between atoms: C3_471  and  O3_487 
REMARK   84  A    between atoms: C4_473  and  O4_489 
REMARK   85  A    between atoms: C5_475  and  C6_477 
REMARK   86  A    between atoms: C6_477  and  O6_492 
REMARK       I    between atoms: C7_480  and  N2_485 
REMARK   87  A    between atoms: C1_495  and  O1_497 
REMARK   88  A    between atoms: O1_497  and  C1'_518 
REMARK   89  A    between atoms: C2_498  and  O2_500 
REMARK   90  A    between atoms: C3_502  and  O3_504 
REMARK   91  A    between atoms: C4_506  and  O4_508 
REMARK   92  A    between atoms: C5_510  and  C6_513 
REMARK   93  A    between atoms: C6_513  and  O6_516 
REMARK   94  A    between atoms: C1'_518  and  C2'_521 
REMARK   95  A    between atoms: C2'_521  and  C3'_524 
REMARK   96  A    between atoms: C3'_524  and  C4'_527 
REMARK   97  A    between atoms: C4'_527  and  C5'_530 
REMARK   98  A    between atoms: C5'_530  and  C6'_533 
REMARK   99  A    between atoms: C6'_533  and  C7'_536 
REMARK  100  A    between atoms: C2A_552  and  CAA_559 
REMARK  101  A    between atoms: CAA_559  and  CBA_562 
REMARK  102  A    between atoms: CBA_562  and  CGA_565 
REMARK  103  A    between atoms: C3B_570  and  CAB_576 
REMARK  104  A    between atoms: C3C_585  and  CAC_591 
REMARK  105  A    between atoms: C3D_600  and  CAD_606 
REMARK  106  A    between atoms: CAD_606  and  CBD_609 
REMARK  107  A    between atoms: CBD_609  and  CGD_612 
REMARK  108  A    between atoms: C1_623  and  C6_637 
REMARK  109  A    between atoms: C2_624  and  C3_627 
REMARK  110  A    between atoms: C2_624  and  C11_648 
REMARK  111  A    between atoms: C6_637  and  C8_643 
ROOT
HETATM    1  C1  NAG A 661       8.029  11.674  24.229  1.00 56.58     0.196 C 
HETATM    2  C2  NAG A 661       7.056  12.473  25.097  1.00 57.13     0.139 C 
HETATM    3  C3  NAG A 661       7.575  12.467  26.552  1.00 58.75     0.174 C 
HETATM    4  C4  NAG A 661       7.703  11.012  27.080  1.00 59.05     0.180 C 
HETATM    5  C5  NAG A 661       8.574  10.166  26.100  1.00 58.18     0.176 C 
HETATM    6  O5  NAG A 661       8.111  10.304  24.720  1.00 56.64    -0.379 OA
ENDROOT
BRANCH   2   7
HETATM    7  N2  NAG A 661       6.947  13.827  24.586  1.00 56.54    -0.352 N 
HETATM    8  C7  NAG A 661       5.962  14.155  23.742  1.00 56.74     0.214 C 
HETATM    9  C8  NAG A 661       5.463  15.591  23.776  1.00 56.94     0.117 C 
HETATM   10  O7  NAG A 661       5.452  13.348  22.951  1.00 55.51    -0.274 OA
HETATM   11  H2  NAG A 661       7.626  14.532  24.872  1.00  0.00     0.163 HD
ENDBRANCH   2   7
BRANCH   3  12
HETATM   12  O3  NAG A 661       6.690  13.206  27.382  1.00 59.03    -0.391 OA
HETATM   13  H3  NAG A 661       5.960  12.658  27.644  1.00  0.00     0.210 HD
ENDBRANCH   3  12
BRANCH   5  14
HETATM   14  C6  NAG A 661       8.567   8.676  26.392  1.00 57.73     0.198 C 
BRANCH  14  15
HETATM   15  O6  NAG A 661       9.168   8.389  27.649  1.00 57.21    -0.398 OA
HETATM   16  H6  NAG A 661       8.688   7.716  28.118  1.00  0.00     0.209 HD
ENDBRANCH  14  15
ENDBRANCH   5  14
BRANCH   4  17
HETATM   17  O4  NAG A 661       8.300  11.026  28.378  1.00 60.81    -0.390 OA
HETATM   18  H4  NAG A 661       8.465  10.134  28.661  1.00  0.00     0.210 HD
ENDBRANCH   4  17
TORSDOF 111
ENDMDL
MODEL 17
REMARK VINA RESULT:      -4.4      9.816     11.062
REMARK WARNING: 32 MAX_TORS EXCEEDED!!!
REMARK  111 active torsions:
REMARK  status: ('A' for Active; 'I' for Inactive)
REMARK    1  A    between atoms: C2_2  and  N2_7 
REMARK    2  A    between atoms: C3_3  and  O3_12 
REMARK    3  A    between atoms: C4_4  and  O4_17 
REMARK    4  A    between atoms: C5_5  and  C6_14 
REMARK    5  A    between atoms: C6_14  and  O6_15 
REMARK       I    between atoms: C7_8  and  N2_7 
REMARK    6  A    between atoms: C2_33  and  N2_49 
REMARK    7  A    between atoms: C3_35  and  O3_51 
REMARK    8  A    between atoms: C4_37  and  O4_53 
REMARK    9  A    between atoms: C5_39  and  C6_41 
REMARK   10  A    between atoms: C6_41  and  O6_56 
REMARK       I    between atoms: C7_44  and  N2_49 
REMARK   11  A    between atoms: C2_62  and  N2_78 
REMARK   12  A    between atoms: C3_64  and  O3_80 
REMARK   13  A    between atoms: C4_66  and  O4_82 
REMARK   14  A    between atoms: C5_68  and  C6_70 
REMARK   15  A    between atoms: C6_70  and  O6_85 
REMARK       I    between atoms: C7_73  and  N2_78 
REMARK   16  A    between atoms: C2_91  and  N2_107 
REMARK   17  A    between atoms: C3_93  and  O3_109 
REMARK   18  A    between atoms: C4_95  and  O4_111 
REMARK   19  A    between atoms: C5_97  and  C6_99 
REMARK   20  A    between atoms: C6_99  and  O6_114 
REMARK       I    between atoms: C7_102  and  N2_107 
REMARK   21  A    between atoms: C1_117  and  O1_119 
REMARK   22  A    between atoms: O1_119  and  C1'_140 
REMARK   23  A    between atoms: C2_120  and  O2_122 
REMARK   24  A    between atoms: C3_124  and  O3_126 
REMARK   25  A    between atoms: C4_128  and  O4_130 
REMARK   26  A    between atoms: C5_132  and  C6_135 
REMARK   27  A    between atoms: C6_135  and  O6_138 
REMARK   28  A    between atoms: C1'_140  and  C2'_143 
REMARK   29  A    between atoms: C2'_143  and  C3'_146 
REMARK   30  A    between atoms: C3'_146  and  C4'_149 
REMARK   31  A    between atoms: C4'_149  and  C5'_152 
REMARK   32  A    between atoms: C5'_152  and  C6'_155 
REMARK   33  A    between atoms: C6'_155  and  C7'_158 
REMARK   34  A    between atoms: C1_165  and  O1_167 
REMARK   35  A    between atoms: O1_167  and  C1'_188 
REMARK   36  A    between atoms: C2_168  and  O2_170 
REMARK   37  A    between atoms: C3_172  and  O3_174 
REMARK   38  A    between atoms: C4_176  and  O4_178 
REMARK   39  A    between atoms: C5_180  and  C6_183 
REMARK   40  A    between atoms: C6_183  and  O6_186 
REMARK   41  A    between atoms: C1'_188  and  C2'_191 
REMARK   42  A    between atoms: C3'_193  and  C4'_195 
REMARK   43  A    between atoms: C4'_195  and  C5'_198 
REMARK   44  A    between atoms: C5'_198  and  C6'_201 
REMARK   45  A    between atoms: C2_212  and  N2_228 
REMARK   46  A    between atoms: C3_214  and  O3_230 
REMARK   47  A    between atoms: C4_216  and  O4_232 
REMARK   48  A    between atoms: C5_218  and  C6_220 
REMARK   49  A    between atoms: C6_220  and  O6_235 
REMARK       I    between atoms: C7_223  and  N2_228 
REMARK   50  A    between atoms: C2A_247  and  CAA_254 
REMARK   51  A    between atoms: CAA_254  and  CBA_257 
REMARK   52  A    between atoms: CBA_257  and  CGA_260 
REMARK   53  A    between atoms: C3B_265  and  CAB_271 
REMARK   54  A    between atoms: C3C_280  and  CAC_286 
REMARK   55  A    between atoms: C3D_295  and  CAD_301 
REMARK   56  A    between atoms: CAD_301  and  CBD_304 
REMARK   57  A    between atoms: CBD_304  and  CGD_307 
REMARK   58  A    between atoms: C1_318  and  C6_332 
REMARK   59  A    between atoms: C2_319  and  C3_322 
REMARK   60  A    between atoms: C2_319  and  C11_343 
REMARK   61  A    between atoms: C6_332  and  C8_338 
REMARK   62  A    between atoms: C2_353  and  N2_369 
REMARK   63  A    between atoms: C3_355  and  O3_371 
REMARK   64  A    between atoms: C4_357  and  O4_373 
REMARK   65  A    between atoms: C5_359  and  C6_361 
REMARK   66  A    between atoms: C6_361  and  O6_376 
REMARK       I    between atoms: C7_364  and  N2_369 
REMARK   67  A    between atoms: C2_382  and  N2_398 
REMARK   68  A    between atoms: C3_384  and  O3_400 
REMARK   69  A    between atoms: C4_386  and  O4_402 
REMARK   70  A    between atoms: C5_388  and  C6_390 
REMARK   71  A    between atoms: C6_390  and  O6_405 
REMARK       I    between atoms: C7_393  and  N2_398 
REMARK   72  A    between atoms: C2_411  and  N2_427 
REMARK   73  A    between atoms: C3_413  and  O3_429 
REMARK   74  A    between atoms: C4_415  and  O4_431 
REMARK   75  A    between atoms: C5_417  and  C6_419 
REMARK   76  A    between atoms: C6_419  and  O6_434 
REMARK       I    between atoms: C7_422  and  N2_427 
REMARK   77  A    between atoms: C2_440  and  N2_456 
REMARK   78  A    between atoms: C3_442  and  O3_458 
REMARK   79  A    between atoms: C4_444  and  O4_460 
REMARK   80  A    between atoms: C5_446  and  C6_448 
REMARK   81  A    between atoms: C6_448  and  O6_463 
REMARK       I    between atoms: C7_451  and  N2_456 
REMARK   82  A    between atoms: C2_469  and  N2_485 
REMARK   83  A    between atoms: C3_471  and  O3_487 
REMARK   84  A    between atoms: C4_473  and  O4_489 
REMARK   85  A    between atoms: C5_475  and  C6_477 
REMARK   86  A    between atoms: C6_477  and  O6_492 
REMARK       I    between atoms: C7_480  and  N2_485 
REMARK   87  A    between atoms: C1_495  and  O1_497 
REMARK   88  A    between atoms: O1_497  and  C1'_518 
REMARK   89  A    between atoms: C2_498  and  O2_500 
REMARK   90  A    between atoms: C3_502  and  O3_504 
REMARK   91  A    between atoms: C4_506  and  O4_508 
REMARK   92  A    between atoms: C5_510  and  C6_513 
REMARK   93  A    between atoms: C6_513  and  O6_516 
REMARK   94  A    between atoms: C1'_518  and  C2'_521 
REMARK   95  A    between atoms: C2'_521  and  C3'_524 
REMARK   96  A    between atoms: C3'_524  and  C4'_527 
REMARK   97  A    between atoms: C4'_527  and  C5'_530 
REMARK   98  A    between atoms: C5'_530  and  C6'_533 
REMARK   99  A    between atoms: C6'_533  and  C7'_536 
REMARK  100  A    between atoms: C2A_552  and  CAA_559 
REMARK  101  A    between atoms: CAA_559  and  CBA_562 
REMARK  102  A    between atoms: CBA_562  and  CGA_565 
REMARK  103  A    between atoms: C3B_570  and  CAB_576 
REMARK  104  A    between atoms: C3C_585  and  CAC_591 
REMARK  105  A    between atoms: C3D_600  and  CAD_606 
REMARK  106  A    between atoms: CAD_606  and  CBD_609 
REMARK  107  A    between atoms: CBD_609  and  CGD_612 
REMARK  108  A    between atoms: C1_623  and  C6_637 
REMARK  109  A    between atoms: C2_624  and  C3_627 
REMARK  110  A    between atoms: C2_624  and  C11_648 
REMARK  111  A    between atoms: C6_637  and  C8_643 
ROOT
HETATM    1  C1  NAG A 661      11.588   7.838  31.458  1.00 56.58     0.196 C 
HETATM    2  C2  NAG A 661      11.317   8.477  32.821  1.00 57.13     0.139 C 
HETATM    3  C3  NAG A 661       9.810   8.799  32.922  1.00 58.75     0.174 C 
HETATM    4  C4  NAG A 661       9.378   9.757  31.779  1.00 59.05     0.180 C 
HETATM    5  C5  NAG A 661       9.801   9.164  30.400  1.00 58.18     0.176 C 
HETATM    6  O5  NAG A 661      11.207   8.764  30.400  1.00 56.64    -0.379 OA
ENDROOT
BRANCH   2   7
HETATM    7  N2  NAG A 661      11.731   7.569  33.875  1.00 56.54    -0.352 N 
HETATM    8  C7  NAG A 661      12.785   7.860  34.645  1.00 56.74     0.214 C 
HETATM    9  C8  NAG A 661      12.777   7.328  36.070  1.00 56.94     0.117 C 
HETATM   10  O7  NAG A 661      13.748   8.534  34.248  1.00 55.51    -0.274 OA
HETATM   11  H2  NAG A 661      11.214   6.703  34.029  1.00  0.00     0.163 HD
ENDBRANCH   2   7
BRANCH   3  12
HETATM   12  O3  NAG A 661       9.528   9.392  34.183  1.00 59.03    -0.391 OA
HETATM   13  H3  NAG A 661      10.129  10.109  34.343  1.00  0.00     0.210 HD
ENDBRANCH   3  12
BRANCH   5  14
HETATM   14  C6  NAG A 661       9.643  10.124  29.235  1.00 57.73     0.198 C 
BRANCH  14  15
HETATM   15  O6  NAG A 661       8.285  10.223  28.822  1.00 57.21    -0.398 OA
HETATM   16  H6  NAG A 661       7.769   9.494  29.146  1.00  0.00     0.209 HD
ENDBRANCH  14  15
ENDBRANCH   5  14
BRANCH   4  17
HETATM   17  O4  NAG A 661       7.961   9.941  31.820  1.00 60.81    -0.390 OA
HETATM   18  H4  NAG A 661       7.570   9.274  32.372  1.00  0.00     0.210 HD
ENDBRANCH   4  17
TORSDOF 111
ENDMDL
MODEL 18
REMARK VINA RESULT:      -4.4      2.827      5.120
REMARK WARNING: 32 MAX_TORS EXCEEDED!!!
REMARK  111 active torsions:
REMARK  status: ('A' for Active; 'I' for Inactive)
REMARK    1  A    between atoms: C2_2  and  N2_7 
REMARK    2  A    between atoms: C3_3  and  O3_12 
REMARK    3  A    between atoms: C4_4  and  O4_17 
REMARK    4  A    between atoms: C5_5  and  C6_14 
REMARK    5  A    between atoms: C6_14  and  O6_15 
REMARK       I    between atoms: C7_8  and  N2_7 
REMARK    6  A    between atoms: C2_33  and  N2_49 
REMARK    7  A    between atoms: C3_35  and  O3_51 
REMARK    8  A    between atoms: C4_37  and  O4_53 
REMARK    9  A    between atoms: C5_39  and  C6_41 
REMARK   10  A    between atoms: C6_41  and  O6_56 
REMARK       I    between atoms: C7_44  and  N2_49 
REMARK   11  A    between atoms: C2_62  and  N2_78 
REMARK   12  A    between atoms: C3_64  and  O3_80 
REMARK   13  A    between atoms: C4_66  and  O4_82 
REMARK   14  A    between atoms: C5_68  and  C6_70 
REMARK   15  A    between atoms: C6_70  and  O6_85 
REMARK       I    between atoms: C7_73  and  N2_78 
REMARK   16  A    between atoms: C2_91  and  N2_107 
REMARK   17  A    between atoms: C3_93  and  O3_109 
REMARK   18  A    between atoms: C4_95  and  O4_111 
REMARK   19  A    between atoms: C5_97  and  C6_99 
REMARK   20  A    between atoms: C6_99  and  O6_114 
REMARK       I    between atoms: C7_102  and  N2_107 
REMARK   21  A    between atoms: C1_117  and  O1_119 
REMARK   22  A    between atoms: O1_119  and  C1'_140 
REMARK   23  A    between atoms: C2_120  and  O2_122 
REMARK   24  A    between atoms: C3_124  and  O3_126 
REMARK   25  A    between atoms: C4_128  and  O4_130 
REMARK   26  A    between atoms: C5_132  and  C6_135 
REMARK   27  A    between atoms: C6_135  and  O6_138 
REMARK   28  A    between atoms: C1'_140  and  C2'_143 
REMARK   29  A    between atoms: C2'_143  and  C3'_146 
REMARK   30  A    between atoms: C3'_146  and  C4'_149 
REMARK   31  A    between atoms: C4'_149  and  C5'_152 
REMARK   32  A    between atoms: C5'_152  and  C6'_155 
REMARK   33  A    between atoms: C6'_155  and  C7'_158 
REMARK   34  A    between atoms: C1_165  and  O1_167 
REMARK   35  A    between atoms: O1_167  and  C1'_188 
REMARK   36  A    between atoms: C2_168  and  O2_170 
REMARK   37  A    between atoms: C3_172  and  O3_174 
REMARK   38  A    between atoms: C4_176  and  O4_178 
REMARK   39  A    between atoms: C5_180  and  C6_183 
REMARK   40  A    between atoms: C6_183  and  O6_186 
REMARK   41  A    between atoms: C1'_188  and  C2'_191 
REMARK   42  A    between atoms: C3'_193  and  C4'_195 
REMARK   43  A    between atoms: C4'_195  and  C5'_198 
REMARK   44  A    between atoms: C5'_198  and  C6'_201 
REMARK   45  A    between atoms: C2_212  and  N2_228 
REMARK   46  A    between atoms: C3_214  and  O3_230 
REMARK   47  A    between atoms: C4_216  and  O4_232 
REMARK   48  A    between atoms: C5_218  and  C6_220 
REMARK   49  A    between atoms: C6_220  and  O6_235 
REMARK       I    between atoms: C7_223  and  N2_228 
REMARK   50  A    between atoms: C2A_247  and  CAA_254 
REMARK   51  A    between atoms: CAA_254  and  CBA_257 
REMARK   52  A    between atoms: CBA_257  and  CGA_260 
REMARK   53  A    between atoms: C3B_265  and  CAB_271 
REMARK   54  A    between atoms: C3C_280  and  CAC_286 
REMARK   55  A    between atoms: C3D_295  and  CAD_301 
REMARK   56  A    between atoms: CAD_301  and  CBD_304 
REMARK   57  A    between atoms: CBD_304  and  CGD_307 
REMARK   58  A    between atoms: C1_318  and  C6_332 
REMARK   59  A    between atoms: C2_319  and  C3_322 
REMARK   60  A    between atoms: C2_319  and  C11_343 
REMARK   61  A    between atoms: C6_332  and  C8_338 
REMARK   62  A    between atoms: C2_353  and  N2_369 
REMARK   63  A    between atoms: C3_355  and  O3_371 
REMARK   64  A    between atoms: C4_357  and  O4_373 
REMARK   65  A    between atoms: C5_359  and  C6_361 
REMARK   66  A    between atoms: C6_361  and  O6_376 
REMARK       I    between atoms: C7_364  and  N2_369 
REMARK   67  A    between atoms: C2_382  and  N2_398 
REMARK   68  A    between atoms: C3_384  and  O3_400 
REMARK   69  A    between atoms: C4_386  and  O4_402 
REMARK   70  A    between atoms: C5_388  and  C6_390 
REMARK   71  A    between atoms: C6_390  and  O6_405 
REMARK       I    between atoms: C7_393  and  N2_398 
REMARK   72  A    between atoms: C2_411  and  N2_427 
REMARK   73  A    between atoms: C3_413  and  O3_429 
REMARK   74  A    between atoms: C4_415  and  O4_431 
REMARK   75  A    between atoms: C5_417  and  C6_419 
REMARK   76  A    between atoms: C6_419  and  O6_434 
REMARK       I    between atoms: C7_422  and  N2_427 
REMARK   77  A    between atoms: C2_440  and  N2_456 
REMARK   78  A    between atoms: C3_442  and  O3_458 
REMARK   79  A    between atoms: C4_444  and  O4_460 
REMARK   80  A    between atoms: C5_446  and  C6_448 
REMARK   81  A    between atoms: C6_448  and  O6_463 
REMARK       I    between atoms: C7_451  and  N2_456 
REMARK   82  A    between atoms: C2_469  and  N2_485 
REMARK   83  A    between atoms: C3_471  and  O3_487 
REMARK   84  A    between atoms: C4_473  and  O4_489 
REMARK   85  A    between atoms: C5_475  and  C6_477 
REMARK   86  A    between atoms: C6_477  and  O6_492 
REMARK       I    between atoms: C7_480  and  N2_485 
REMARK   87  A    between atoms: C1_495  and  O1_497 
REMARK   88  A    between atoms: O1_497  and  C1'_518 
REMARK   89  A    between atoms: C2_498  and  O2_500 
REMARK   90  A    between atoms: C3_502  and  O3_504 
REMARK   91  A    between atoms: C4_506  and  O4_508 
REMARK   92  A    between atoms: C5_510  and  C6_513 
REMARK   93  A    between atoms: C6_513  and  O6_516 
REMARK   94  A    between atoms: C1'_518  and  C2'_521 
REMARK   95  A    between atoms: C2'_521  and  C3'_524 
REMARK   96  A    between atoms: C3'_524  and  C4'_527 
REMARK   97  A    between atoms: C4'_527  and  C5'_530 
REMARK   98  A    between atoms: C5'_530  and  C6'_533 
REMARK   99  A    between atoms: C6'_533  and  C7'_536 
REMARK  100  A    between atoms: C2A_552  and  CAA_559 
REMARK  101  A    between atoms: CAA_559  and  CBA_562 
REMARK  102  A    between atoms: CBA_562  and  CGA_565 
REMARK  103  A    between atoms: C3B_570  and  CAB_576 
REMARK  104  A    between atoms: C3C_585  and  CAC_591 
REMARK  105  A    between atoms: C3D_600  and  CAD_606 
REMARK  106  A    between atoms: CAD_606  and  CBD_609 
REMARK  107  A    between atoms: CBD_609  and  CGD_612 
REMARK  108  A    between atoms: C1_623  and  C6_637 
REMARK  109  A    between atoms: C2_624  and  C3_627 
REMARK  110  A    between atoms: C2_624  and  C11_648 
REMARK  111  A    between atoms: C6_637  and  C8_643 
ROOT
HETATM    1  C1  NAG A 661       7.041  11.998  24.391  1.00 56.58     0.196 C 
HETATM    2  C2  NAG A 661       7.843  11.726  25.664  1.00 57.13     0.139 C 
HETATM    3  C3  NAG A 661       7.181  12.487  26.834  1.00 58.75     0.174 C 
HETATM    4  C4  NAG A 661       7.135  14.010  26.538  1.00 59.05     0.180 C 
HETATM    5  C5  NAG A 661       6.451  14.264  25.159  1.00 58.18     0.176 C 
HETATM    6  O5  NAG A 661       7.036  13.428  24.112  1.00 56.64    -0.379 OA
ENDROOT
BRANCH   2   7
HETATM    7  N2  NAG A 661       7.877  10.298  25.921  1.00 56.54    -0.352 N 
HETATM    8  C7  NAG A 661       9.039   9.682  26.171  1.00 56.74     0.214 C 
HETATM    9  C8  NAG A 661       9.000   8.456  27.069  1.00 56.94     0.117 C 
HETATM   10  O7  NAG A 661      10.122  10.068  25.706  1.00 55.51    -0.274 OA
HETATM   11  H2  NAG A 661       7.011   9.761  25.912  1.00  0.00     0.163 HD
ENDBRANCH   2   7
BRANCH   3  12
HETATM   12  O3  NAG A 661       7.905  12.249  28.034  1.00 59.03    -0.391 OA
HETATM   13  H3  NAG A 661       7.633  11.423  28.417  1.00  0.00     0.210 HD
ENDBRANCH   3  12
BRANCH   5  14
HETATM   14  C6  NAG A 661       6.566  15.693  24.662  1.00 57.73     0.198 C 
BRANCH  14  15
HETATM   15  O6  NAG A 661       5.501  16.024  23.778  1.00 57.21    -0.398 OA
HETATM   16  H6  NAG A 661       5.826  16.290  22.926  1.00  0.00     0.209 HD
ENDBRANCH  14  15
ENDBRANCH   5  14
BRANCH   4  17
HETATM   17  O4  NAG A 661       6.411  14.677  27.575  1.00 60.81    -0.390 OA
HETATM   18  H4  NAG A 661       7.010  15.200  28.094  1.00  0.00     0.210 HD
ENDBRANCH   4  17
TORSDOF 111
ENDMDL
MODEL 19
REMARK VINA RESULT:      -4.3      4.327      6.216
REMARK WARNING: 32 MAX_TORS EXCEEDED!!!
REMARK  111 active torsions:
REMARK  status: ('A' for Active; 'I' for Inactive)
REMARK    1  A    between atoms: C2_2  and  N2_7 
REMARK    2  A    between atoms: C3_3  and  O3_12 
REMARK    3  A    between atoms: C4_4  and  O4_17 
REMARK    4  A    between atoms: C5_5  and  C6_14 
REMARK    5  A    between atoms: C6_14  and  O6_15 
REMARK       I    between atoms: C7_8  and  N2_7 
REMARK    6  A    between atoms: C2_33  and  N2_49 
REMARK    7  A    between atoms: C3_35  and  O3_51 
REMARK    8  A    between atoms: C4_37  and  O4_53 
REMARK    9  A    between atoms: C5_39  and  C6_41 
REMARK   10  A    between atoms: C6_41  and  O6_56 
REMARK       I    between atoms: C7_44  and  N2_49 
REMARK   11  A    between atoms: C2_62  and  N2_78 
REMARK   12  A    between atoms: C3_64  and  O3_80 
REMARK   13  A    between atoms: C4_66  and  O4_82 
REMARK   14  A    between atoms: C5_68  and  C6_70 
REMARK   15  A    between atoms: C6_70  and  O6_85 
REMARK       I    between atoms: C7_73  and  N2_78 
REMARK   16  A    between atoms: C2_91  and  N2_107 
REMARK   17  A    between atoms: C3_93  and  O3_109 
REMARK   18  A    between atoms: C4_95  and  O4_111 
REMARK   19  A    between atoms: C5_97  and  C6_99 
REMARK   20  A    between atoms: C6_99  and  O6_114 
REMARK       I    between atoms: C7_102  and  N2_107 
REMARK   21  A    between atoms: C1_117  and  O1_119 
REMARK   22  A    between atoms: O1_119  and  C1'_140 
REMARK   23  A    between atoms: C2_120  and  O2_122 
REMARK   24  A    between atoms: C3_124  and  O3_126 
REMARK   25  A    between atoms: C4_128  and  O4_130 
REMARK   26  A    between atoms: C5_132  and  C6_135 
REMARK   27  A    between atoms: C6_135  and  O6_138 
REMARK   28  A    between atoms: C1'_140  and  C2'_143 
REMARK   29  A    between atoms: C2'_143  and  C3'_146 
REMARK   30  A    between atoms: C3'_146  and  C4'_149 
REMARK   31  A    between atoms: C4'_149  and  C5'_152 
REMARK   32  A    between atoms: C5'_152  and  C6'_155 
REMARK   33  A    between atoms: C6'_155  and  C7'_158 
REMARK   34  A    between atoms: C1_165  and  O1_167 
REMARK   35  A    between atoms: O1_167  and  C1'_188 
REMARK   36  A    between atoms: C2_168  and  O2_170 
REMARK   37  A    between atoms: C3_172  and  O3_174 
REMARK   38  A    between atoms: C4_176  and  O4_178 
REMARK   39  A    between atoms: C5_180  and  C6_183 
REMARK   40  A    between atoms: C6_183  and  O6_186 
REMARK   41  A    between atoms: C1'_188  and  C2'_191 
REMARK   42  A    between atoms: C3'_193  and  C4'_195 
REMARK   43  A    between atoms: C4'_195  and  C5'_198 
REMARK   44  A    between atoms: C5'_198  and  C6'_201 
REMARK   45  A    between atoms: C2_212  and  N2_228 
REMARK   46  A    between atoms: C3_214  and  O3_230 
REMARK   47  A    between atoms: C4_216  and  O4_232 
REMARK   48  A    between atoms: C5_218  and  C6_220 
REMARK   49  A    between atoms: C6_220  and  O6_235 
REMARK       I    between atoms: C7_223  and  N2_228 
REMARK   50  A    between atoms: C2A_247  and  CAA_254 
REMARK   51  A    between atoms: CAA_254  and  CBA_257 
REMARK   52  A    between atoms: CBA_257  and  CGA_260 
REMARK   53  A    between atoms: C3B_265  and  CAB_271 
REMARK   54  A    between atoms: C3C_280  and  CAC_286 
REMARK   55  A    between atoms: C3D_295  and  CAD_301 
REMARK   56  A    between atoms: CAD_301  and  CBD_304 
REMARK   57  A    between atoms: CBD_304  and  CGD_307 
REMARK   58  A    between atoms: C1_318  and  C6_332 
REMARK   59  A    between atoms: C2_319  and  C3_322 
REMARK   60  A    between atoms: C2_319  and  C11_343 
REMARK   61  A    between atoms: C6_332  and  C8_338 
REMARK   62  A    between atoms: C2_353  and  N2_369 
REMARK   63  A    between atoms: C3_355  and  O3_371 
REMARK   64  A    between atoms: C4_357  and  O4_373 
REMARK   65  A    between atoms: C5_359  and  C6_361 
REMARK   66  A    between atoms: C6_361  and  O6_376 
REMARK       I    between atoms: C7_364  and  N2_369 
REMARK   67  A    between atoms: C2_382  and  N2_398 
REMARK   68  A    between atoms: C3_384  and  O3_400 
REMARK   69  A    between atoms: C4_386  and  O4_402 
REMARK   70  A    between atoms: C5_388  and  C6_390 
REMARK   71  A    between atoms: C6_390  and  O6_405 
REMARK       I    between atoms: C7_393  and  N2_398 
REMARK   72  A    between atoms: C2_411  and  N2_427 
REMARK   73  A    between atoms: C3_413  and  O3_429 
REMARK   74  A    between atoms: C4_415  and  O4_431 
REMARK   75  A    between atoms: C5_417  and  C6_419 
REMARK   76  A    between atoms: C6_419  and  O6_434 
REMARK       I    between atoms: C7_422  and  N2_427 
REMARK   77  A    between atoms: C2_440  and  N2_456 
REMARK   78  A    between atoms: C3_442  and  O3_458 
REMARK   79  A    between atoms: C4_444  and  O4_460 
REMARK   80  A    between atoms: C5_446  and  C6_448 
REMARK   81  A    between atoms: C6_448  and  O6_463 
REMARK       I    between atoms: C7_451  and  N2_456 
REMARK   82  A    between atoms: C2_469  and  N2_485 
REMARK   83  A    between atoms: C3_471  and  O3_487 
REMARK   84  A    between atoms: C4_473  and  O4_489 
REMARK   85  A    between atoms: C5_475  and  C6_477 
REMARK   86  A    between atoms: C6_477  and  O6_492 
REMARK       I    between atoms: C7_480  and  N2_485 
REMARK   87  A    between atoms: C1_495  and  O1_497 
REMARK   88  A    between atoms: O1_497  and  C1'_518 
REMARK   89  A    between atoms: C2_498  and  O2_500 
REMARK   90  A    between atoms: C3_502  and  O3_504 
REMARK   91  A    between atoms: C4_506  and  O4_508 
REMARK   92  A    between atoms: C5_510  and  C6_513 
REMARK   93  A    between atoms: C6_513  and  O6_516 
REMARK   94  A    between atoms: C1'_518  and  C2'_521 
REMARK   95  A    between atoms: C2'_521  and  C3'_524 
REMARK   96  A    between atoms: C3'_524  and  C4'_527 
REMARK   97  A    between atoms: C4'_527  and  C5'_530 
REMARK   98  A    between atoms: C5'_530  and  C6'_533 
REMARK   99  A    between atoms: C6'_533  and  C7'_536 
REMARK  100  A    between atoms: C2A_552  and  CAA_559 
REMARK  101  A    between atoms: CAA_559  and  CBA_562 
REMARK  102  A    between atoms: CBA_562  and  CGA_565 
REMARK  103  A    between atoms: C3B_570  and  CAB_576 
REMARK  104  A    between atoms: C3C_585  and  CAC_591 
REMARK  105  A    between atoms: C3D_600  and  CAD_606 
REMARK  106  A    between atoms: CAD_606  and  CBD_609 
REMARK  107  A    between atoms: CBD_609  and  CGD_612 
REMARK  108  A    between atoms: C1_623  and  C6_637 
REMARK  109  A    between atoms: C2_624  and  C3_627 
REMARK  110  A    between atoms: C2_624  and  C11_648 
REMARK  111  A    between atoms: C6_637  and  C8_643 
ROOT
HETATM    1  C1  NAG A 661       8.470   8.678  23.883  1.00 56.58     0.196 C 
HETATM    2  C2  NAG A 661       9.365   8.865  25.108  1.00 57.13     0.139 C 
HETATM    3  C3  NAG A 661       8.680   9.861  26.070  1.00 58.75     0.174 C 
HETATM    4  C4  NAG A 661       8.438  11.222  25.364  1.00 59.05     0.180 C 
HETATM    5  C5  NAG A 661       7.656  10.999  24.033  1.00 58.18     0.176 C 
HETATM    6  O5  NAG A 661       8.280   9.959  23.216  1.00 56.64    -0.379 OA
ENDROOT
BRANCH   2   7
HETATM    7  N2  NAG A 661       9.583   7.582  25.752  1.00 56.54    -0.352 N 
HETATM    8  C7  NAG A 661       8.551   6.890  26.250  1.00 56.74     0.214 C 
HETATM    9  C8  NAG A 661       8.670   5.374  26.266  1.00 56.94     0.117 C 
HETATM   10  O7  NAG A 661       7.524   7.429  26.688  1.00 55.51    -0.274 OA
HETATM   11  H2  NAG A 661      10.528   7.206  25.824  1.00  0.00     0.163 HD
ENDBRANCH   2   7
BRANCH   3  12
HETATM   12  O3  NAG A 661       9.490  10.051  27.222  1.00 59.03    -0.391 OA
HETATM   13  H3  NAG A 661      10.363  10.323  26.962  1.00  0.00     0.210 HD
ENDBRANCH   3  12
BRANCH   5  14
HETATM   14  C6  NAG A 661       7.573  12.228  23.147  1.00 57.73     0.198 C 
BRANCH  14  15
HETATM   15  O6  NAG A 661       6.697  13.206  23.694  1.00 57.21    -0.398 OA
HETATM   16  H6  NAG A 661       6.160  13.609  23.021  1.00  0.00     0.209 HD
ENDBRANCH  14  15
ENDBRANCH   5  14
BRANCH   4  17
HETATM   17  O4  NAG A 661       7.695  12.084  26.230  1.00 60.81    -0.390 OA
HETATM   18  H4  NAG A 661       7.929  11.904  27.133  1.00  0.00     0.210 HD
ENDBRANCH   4  17
TORSDOF 111
ENDMDL
MODEL 20
REMARK VINA RESULT:      -4.3      7.983      9.439
REMARK WARNING: 32 MAX_TORS EXCEEDED!!!
REMARK  111 active torsions:
REMARK  status: ('A' for Active; 'I' for Inactive)
REMARK    1  A    between atoms: C2_2  and  N2_7 
REMARK    2  A    between atoms: C3_3  and  O3_12 
REMARK    3  A    between atoms: C4_4  and  O4_17 
REMARK    4  A    between atoms: C5_5  and  C6_14 
REMARK    5  A    between atoms: C6_14  and  O6_15 
REMARK       I    between atoms: C7_8  and  N2_7 
REMARK    6  A    between atoms: C2_33  and  N2_49 
REMARK    7  A    between atoms: C3_35  and  O3_51 
REMARK    8  A    between atoms: C4_37  and  O4_53 
REMARK    9  A    between atoms: C5_39  and  C6_41 
REMARK   10  A    between atoms: C6_41  and  O6_56 
REMARK       I    between atoms: C7_44  and  N2_49 
REMARK   11  A    between atoms: C2_62  and  N2_78 
REMARK   12  A    between atoms: C3_64  and  O3_80 
REMARK   13  A    between atoms: C4_66  and  O4_82 
REMARK   14  A    between atoms: C5_68  and  C6_70 
REMARK   15  A    between atoms: C6_70  and  O6_85 
REMARK       I    between atoms: C7_73  and  N2_78 
REMARK   16  A    between atoms: C2_91  and  N2_107 
REMARK   17  A    between atoms: C3_93  and  O3_109 
REMARK   18  A    between atoms: C4_95  and  O4_111 
REMARK   19  A    between atoms: C5_97  and  C6_99 
REMARK   20  A    between atoms: C6_99  and  O6_114 
REMARK       I    between atoms: C7_102  and  N2_107 
REMARK   21  A    between atoms: C1_117  and  O1_119 
REMARK   22  A    between atoms: O1_119  and  C1'_140 
REMARK   23  A    between atoms: C2_120  and  O2_122 
REMARK   24  A    between atoms: C3_124  and  O3_126 
REMARK   25  A    between atoms: C4_128  and  O4_130 
REMARK   26  A    between atoms: C5_132  and  C6_135 
REMARK   27  A    between atoms: C6_135  and  O6_138 
REMARK   28  A    between atoms: C1'_140  and  C2'_143 
REMARK   29  A    between atoms: C2'_143  and  C3'_146 
REMARK   30  A    between atoms: C3'_146  and  C4'_149 
REMARK   31  A    between atoms: C4'_149  and  C5'_152 
REMARK   32  A    between atoms: C5'_152  and  C6'_155 
REMARK   33  A    between atoms: C6'_155  and  C7'_158 
REMARK   34  A    between atoms: C1_165  and  O1_167 
REMARK   35  A    between atoms: O1_167  and  C1'_188 
REMARK   36  A    between atoms: C2_168  and  O2_170 
REMARK   37  A    between atoms: C3_172  and  O3_174 
REMARK   38  A    between atoms: C4_176  and  O4_178 
REMARK   39  A    between atoms: C5_180  and  C6_183 
REMARK   40  A    between atoms: C6_183  and  O6_186 
REMARK   41  A    between atoms: C1'_188  and  C2'_191 
REMARK   42  A    between atoms: C3'_193  and  C4'_195 
REMARK   43  A    between atoms: C4'_195  and  C5'_198 
REMARK   44  A    between atoms: C5'_198  and  C6'_201 
REMARK   45  A    between atoms: C2_212  and  N2_228 
REMARK   46  A    between atoms: C3_214  and  O3_230 
REMARK   47  A    between atoms: C4_216  and  O4_232 
REMARK   48  A    between atoms: C5_218  and  C6_220 
REMARK   49  A    between atoms: C6_220  and  O6_235 
REMARK       I    between atoms: C7_223  and  N2_228 
REMARK   50  A    between atoms: C2A_247  and  CAA_254 
REMARK   51  A    between atoms: CAA_254  and  CBA_257 
REMARK   52  A    between atoms: CBA_257  and  CGA_260 
REMARK   53  A    between atoms: C3B_265  and  CAB_271 
REMARK   54  A    between atoms: C3C_280  and  CAC_286 
REMARK   55  A    between atoms: C3D_295  and  CAD_301 
REMARK   56  A    between atoms: CAD_301  and  CBD_304 
REMARK   57  A    between atoms: CBD_304  and  CGD_307 
REMARK   58  A    between atoms: C1_318  and  C6_332 
REMARK   59  A    between atoms: C2_319  and  C3_322 
REMARK   60  A    between atoms: C2_319  and  C11_343 
REMARK   61  A    between atoms: C6_332  and  C8_338 
REMARK   62  A    between atoms: C2_353  and  N2_369 
REMARK   63  A    between atoms: C3_355  and  O3_371 
REMARK   64  A    between atoms: C4_357  and  O4_373 
REMARK   65  A    between atoms: C5_359  and  C6_361 
REMARK   66  A    between atoms: C6_361  and  O6_376 
REMARK       I    between atoms: C7_364  and  N2_369 
REMARK   67  A    between atoms: C2_382  and  N2_398 
REMARK   68  A    between atoms: C3_384  and  O3_400 
REMARK   69  A    between atoms: C4_386  and  O4_402 
REMARK   70  A    between atoms: C5_388  and  C6_390 
REMARK   71  A    between atoms: C6_390  and  O6_405 
REMARK       I    between atoms: C7_393  and  N2_398 
REMARK   72  A    between atoms: C2_411  and  N2_427 
REMARK   73  A    between atoms: C3_413  and  O3_429 
REMARK   74  A    between atoms: C4_415  and  O4_431 
REMARK   75  A    between atoms: C5_417  and  C6_419 
REMARK   76  A    between atoms: C6_419  and  O6_434 
REMARK       I    between atoms: C7_422  and  N2_427 
REMARK   77  A    between atoms: C2_440  and  N2_456 
REMARK   78  A    between atoms: C3_442  and  O3_458 
REMARK   79  A    between atoms: C4_444  and  O4_460 
REMARK   80  A    between atoms: C5_446  and  C6_448 
REMARK   81  A    between atoms: C6_448  and  O6_463 
REMARK       I    between atoms: C7_451  and  N2_456 
REMARK   82  A    between atoms: C2_469  and  N2_485 
REMARK   83  A    between atoms: C3_471  and  O3_487 
REMARK   84  A    between atoms: C4_473  and  O4_489 
REMARK   85  A    between atoms: C5_475  and  C6_477 
REMARK   86  A    between atoms: C6_477  and  O6_492 
REMARK       I    between atoms: C7_480  and  N2_485 
REMARK   87  A    between atoms: C1_495  and  O1_497 
REMARK   88  A    between atoms: O1_497  and  C1'_518 
REMARK   89  A    between atoms: C2_498  and  O2_500 
REMARK   90  A    between atoms: C3_502  and  O3_504 
REMARK   91  A    between atoms: C4_506  and  O4_508 
REMARK   92  A    between atoms: C5_510  and  C6_513 
REMARK   93  A    between atoms: C6_513  and  O6_516 
REMARK   94  A    between atoms: C1'_518  and  C2'_521 
REMARK   95  A    between atoms: C2'_521  and  C3'_524 
REMARK   96  A    between atoms: C3'_524  and  C4'_527 
REMARK   97  A    between atoms: C4'_527  and  C5'_530 
REMARK   98  A    between atoms: C5'_530  and  C6'_533 
REMARK   99  A    between atoms: C6'_533  and  C7'_536 
REMARK  100  A    between atoms: C2A_552  and  CAA_559 
REMARK  101  A    between atoms: CAA_559  and  CBA_562 
REMARK  102  A    between atoms: CBA_562  and  CGA_565 
REMARK  103  A    between atoms: C3B_570  and  CAB_576 
REMARK  104  A    between atoms: C3C_585  and  CAC_591 
REMARK  105  A    between atoms: C3D_600  and  CAD_606 
REMARK  106  A    between atoms: CAD_606  and  CBD_609 
REMARK  107  A    between atoms: CBD_609  and  CGD_612 
REMARK  108  A    between atoms: C1_623  and  C6_637 
REMARK  109  A    between atoms: C2_624  and  C3_627 
REMARK  110  A    between atoms: C2_624  and  C11_648 
REMARK  111  A    between atoms: C6_637  and  C8_643 
ROOT
HETATM    1  C1  NAG A 661       8.685  11.353  31.194  1.00 56.58     0.196 C 
HETATM    2  C2  NAG A 661       8.565  10.198  32.188  1.00 57.13     0.139 C 
HETATM    3  C3  NAG A 661       9.749   9.232  31.966  1.00 58.75     0.174 C 
HETATM    4  C4  NAG A 661       9.749   8.695  30.509  1.00 59.05     0.180 C 
HETATM    5  C5  NAG A 661       9.715   9.887  29.503  1.00 58.18     0.176 C 
HETATM    6  O5  NAG A 661       8.651  10.834  29.833  1.00 56.64    -0.379 OA
ENDROOT
BRANCH   2   7
HETATM    7  N2  NAG A 661       8.562  10.720  33.543  1.00 56.54    -0.352 N 
HETATM    8  C7  NAG A 661       7.418  10.816  34.229  1.00 56.74     0.214 C 
HETATM    9  C8  NAG A 661       7.499  10.686  35.743  1.00 56.94     0.117 C 
HETATM   10  O7  NAG A 661       6.318  11.003  33.688  1.00 55.51    -0.274 OA
HETATM   11  H2  NAG A 661       9.438  11.014  33.973  1.00  0.00     0.163 HD
ENDBRANCH   2   7
BRANCH   3  12
HETATM   12  O3  NAG A 661       9.664   8.147  32.880  1.00 59.03    -0.391 OA
HETATM   13  H3  NAG A 661      10.351   8.222  33.533  1.00  0.00     0.210 HD
ENDBRANCH   3  12
BRANCH   5  14
HETATM   14  C6  NAG A 661       9.473   9.478  28.061  1.00 57.73     0.198 C 
BRANCH  14  15
HETATM   15  O6  NAG A 661       9.285   8.072  27.944  1.00 57.21    -0.398 OA
HETATM   16  H6  NAG A 661      10.111   7.606  27.986  1.00  0.00     0.209 HD
ENDBRANCH  14  15
ENDBRANCH   5  14
BRANCH   4  17
HETATM   17  O4  NAG A 661      10.919   7.904  30.291  1.00 60.81    -0.390 OA
HETATM   18  H4  NAG A 661      11.428   7.862  31.092  1.00  0.00     0.210 HD
ENDBRANCH   4  17
TORSDOF 111
ENDMDL
