MODEL 1
REMARK VINA RESULT:     -12.4      0.000      0.000
REMARK  32 active torsions:
REMARK  status: ('A' for Active; 'I' for Inactive)
REMARK    1  A    between atoms: C2A_10  and  CAA_17 
REMARK    2  A    between atoms: CAA_17  and  CBA_20 
REMARK    3  A    between atoms: CBA_20  and  CGA_23 
REMARK    4  A    between atoms: C3B_28  and  CAB_34 
REMARK    5  A    between atoms: C3C_41  and  CAC_47 
REMARK    6  A    between atoms: C3D_54  and  CAD_60 
REMARK    7  A    between atoms: CAD_60  and  CBD_63 
REMARK    8  A    between atoms: CBD_63  and  CGD_66 
REMARK    9  A    between atoms: C2A_86  and  CAA_93 
REMARK   10  A    between atoms: CAA_93  and  CBA_96 
REMARK   11  A    between atoms: CBA_96  and  CGA_99 
REMARK   12  A    between atoms: C3B_104  and  CAB_110 
REMARK   13  A    between atoms: C3C_117  and  CAC_123 
REMARK   14  A    between atoms: C3D_130  and  CAD_136 
REMARK   15  A    between atoms: CAD_136  and  CBD_139 
REMARK   16  A    between atoms: CBD_139  and  CGD_142 
REMARK   17  A    between atoms: C2A_162  and  CAA_169 
REMARK   18  A    between atoms: CAA_169  and  CBA_172 
REMARK   19  A    between atoms: CBA_172  and  CGA_175 
REMARK   20  A    between atoms: C3B_180  and  CAB_186 
REMARK   21  A    between atoms: C3C_193  and  CAC_199 
REMARK   22  A    between atoms: C3D_206  and  CAD_212 
REMARK   23  A    between atoms: CAD_212  and  CBD_215 
REMARK   24  A    between atoms: CBD_215  and  CGD_218 
REMARK   25  A    between atoms: C2A_238  and  CAA_245 
REMARK   26  A    between atoms: CAA_245  and  CBA_248 
REMARK   27  A    between atoms: CBA_248  and  CGA_251 
REMARK   28  A    between atoms: C3B_256  and  CAB_262 
REMARK   29  A    between atoms: C3C_269  and  CAC_275 
REMARK   30  A    between atoms: C3D_282  and  CAD_288 
REMARK   31  A    between atoms: CAD_288  and  CBD_291 
REMARK   32  A    between atoms: CBD_291  and  CGD_294 
ROOT
HETATM    1  CHA HEM A 142       8.285  13.423  30.909  1.00 12.71     0.060 C 
HETATM    2  CHB HEM A 142       6.641  15.056  26.672  1.00 15.63     0.060 C 
HETATM    3  CHC HEM A 142       8.024  10.918  24.489  1.00  9.88     0.060 C 
HETATM    4  CHD HEM A 142       9.282   9.105  28.865  1.00  7.91     0.060 C 
HETATM    5  C1A HEM A 142       7.673  14.200  29.937  1.00 12.45     0.041 A 
HETATM    6  C2A HEM A 142       7.018  15.475  30.180  1.00 13.35    -0.023 A 
HETATM    7  C3A HEM A 142       6.563  15.927  29.025  1.00 14.78    -0.027 A 
HETATM    8  C4A HEM A 142       6.954  14.951  28.008  1.00 14.59     0.041 A 
HETATM    9  CMA HEM A 142       5.769  17.214  28.708  1.00 14.58     0.051 C 
HETATM   10  C1B HEM A 142       6.878  14.063  25.733  1.00 12.58     0.041 A 
HETATM   11  C2B HEM A 142       6.491  14.163  24.341  1.00 13.07    -0.023 A 
HETATM   12  C3B HEM A 142       6.852  13.026  23.739  1.00 11.69    -0.002 A 
HETATM   13  C4B HEM A 142       7.515  12.196  24.751  1.00  9.89     0.045 A 
HETATM   14  CMB HEM A 142       5.773  15.378  23.702  1.00 11.38     0.051 C 
HETATM   15  C1C HEM A 142       8.434  10.087  25.526  1.00  7.48     0.041 A 
HETATM   16  C2C HEM A 142       8.736   8.664  25.346  1.00  9.04    -0.023 A 
HETATM   17  C3C HEM A 142       9.095   8.178  26.532  1.00  8.23    -0.002 A 
HETATM   18  C4C HEM A 142       8.993   9.250  27.502  1.00  9.42     0.045 A 
HETATM   19  CMC HEM A 142       8.669   7.973  23.974  1.00 11.32     0.051 C 
HETATM   20  C1D HEM A 142       9.094  10.148  29.764  1.00  8.17     0.041 A 
HETATM   21  C2D HEM A 142       9.288  10.014  31.201  1.00 11.33    -0.027 A 
HETATM   22  C3D HEM A 142       9.003  11.193  31.772  1.00 10.91    -0.023 A 
HETATM   23  C4D HEM A 142       8.643  12.102  30.720  1.00 10.25     0.041 A 
HETATM   24  CMD HEM A 142       9.736   8.729  31.910  1.00  7.70     0.051 C 
HETATM   25  NA  HEM A 142       7.634  13.892  28.593  1.00 13.54    -0.355 N 
HETATM   26  HA  HEM A 142       8.018  13.068  28.132  1.00  0.00     0.166 HD
HETATM   27  NB  HEM A 142       7.514  12.840  25.961  1.00 11.26    -0.355 N 
HETATM   28  HB  HEM A 142       7.897  12.498  26.843  1.00  0.00     0.166 HD
HETATM   29  NC  HEM A 142       8.600  10.416  26.850  1.00  8.38    -0.355 N 
HETATM   30  HC  HEM A 142       8.463  11.335  27.272  1.00  0.00     0.166 HD
HETATM   31  ND  HEM A 142       8.693  11.427  29.504  1.00 10.59    -0.355 N 
HETATM   32  HD  HEM A 142       8.470  11.816  28.588  1.00  0.00     0.166 HD
ENDROOT
BRANCH   6  33
HETATM   33  CAA HEM A 142       6.871  16.156  31.578  1.00 13.99     0.052 C 
BRANCH  33  34
HETATM   34  CBA HEM A 142       8.228  16.374  32.277  1.00 19.03     0.118 C 
BRANCH  34  35
HETATM   35  CGA HEM A 142       8.345  15.939  33.722  1.00 23.98     0.172 C 
HETATM   36  O2A HEM A 142       7.463  16.274  34.529  1.00 22.84    -0.648 OA
HETATM   37  O1A HEM A 142       9.324  15.212  34.017  1.00 28.12    -0.648 OA
ENDBRANCH  34  35
ENDBRANCH  33  34
ENDBRANCH   6  33
BRANCH  22  38
HETATM   38  CAD HEM A 142       9.059  11.565  33.283  1.00 12.19     0.052 C 
BRANCH  38  39
HETATM   39  CBD HEM A 142       7.679  11.310  33.919  1.00 14.64     0.118 C 
BRANCH  39  40
HETATM   40  CGD HEM A 142       6.916  12.571  34.345  1.00 15.56     0.172 C 
HETATM   41  O1D HEM A 142       7.204  13.006  35.466  1.00 18.46    -0.648 OA
HETATM   42  O2D HEM A 142       6.125  13.041  33.520  1.00 17.66    -0.648 OA
ENDBRANCH  39  40
ENDBRANCH  38  39
ENDBRANCH  22  38
BRANCH  17  43
HETATM   43  CAC HEM A 142       9.496   6.749  26.945  1.00  8.91     0.004 C 
HETATM   44  CBC HEM A 142       8.738   5.708  26.561  1.00 10.56     0.012 C 
ENDBRANCH  17  43
BRANCH  12  45
HETATM   45  CAB HEM A 142       6.701  12.584  22.275  1.00 14.43     0.004 C 
HETATM   46  CBB HEM A 142       7.557  12.990  21.331  1.00 14.85     0.012 C 
ENDBRANCH  12  45
TORSDOF 32
ENDMDL
MODEL 2
REMARK VINA RESULT:     -11.4      3.332      7.334
REMARK  32 active torsions:
REMARK  status: ('A' for Active; 'I' for Inactive)
REMARK    1  A    between atoms: C2A_10  and  CAA_17 
REMARK    2  A    between atoms: CAA_17  and  CBA_20 
REMARK    3  A    between atoms: CBA_20  and  CGA_23 
REMARK    4  A    between atoms: C3B_28  and  CAB_34 
REMARK    5  A    between atoms: C3C_41  and  CAC_47 
REMARK    6  A    between atoms: C3D_54  and  CAD_60 
REMARK    7  A    between atoms: CAD_60  and  CBD_63 
REMARK    8  A    between atoms: CBD_63  and  CGD_66 
REMARK    9  A    between atoms: C2A_86  and  CAA_93 
REMARK   10  A    between atoms: CAA_93  and  CBA_96 
REMARK   11  A    between atoms: CBA_96  and  CGA_99 
REMARK   12  A    between atoms: C3B_104  and  CAB_110 
REMARK   13  A    between atoms: C3C_117  and  CAC_123 
REMARK   14  A    between atoms: C3D_130  and  CAD_136 
REMARK   15  A    between atoms: CAD_136  and  CBD_139 
REMARK   16  A    between atoms: CBD_139  and  CGD_142 
REMARK   17  A    between atoms: C2A_162  and  CAA_169 
REMARK   18  A    between atoms: CAA_169  and  CBA_172 
REMARK   19  A    between atoms: CBA_172  and  CGA_175 
REMARK   20  A    between atoms: C3B_180  and  CAB_186 
REMARK   21  A    between atoms: C3C_193  and  CAC_199 
REMARK   22  A    between atoms: C3D_206  and  CAD_212 
REMARK   23  A    between atoms: CAD_212  and  CBD_215 
REMARK   24  A    between atoms: CBD_215  and  CGD_218 
REMARK   25  A    between atoms: C2A_238  and  CAA_245 
REMARK   26  A    between atoms: CAA_245  and  CBA_248 
REMARK   27  A    between atoms: CBA_248  and  CGA_251 
REMARK   28  A    between atoms: C3B_256  and  CAB_262 
REMARK   29  A    between atoms: C3C_269  and  CAC_275 
REMARK   30  A    between atoms: C3D_282  and  CAD_288 
REMARK   31  A    between atoms: CAD_288  and  CBD_291 
REMARK   32  A    between atoms: CBD_291  and  CGD_294 
ROOT
HETATM    1  CHA HEM A 142       9.472   9.552  28.813  1.00 12.71     0.060 C 
HETATM    2  CHB HEM A 142       8.063  13.443  31.301  1.00 15.63     0.060 C 
HETATM    3  CHC HEM A 142       6.679  15.640  27.170  1.00  9.88     0.060 C 
HETATM    4  CHD HEM A 142       7.701  11.523  24.715  1.00  7.91     0.060 C 
HETATM    5  C1A HEM A 142       9.156  10.418  29.849  1.00 12.45     0.041 A 
HETATM    6  C2A HEM A 142       9.303  10.114  31.262  1.00 13.35    -0.023 A 
HETATM    7  C3A HEM A 142       8.917  11.175  31.950  1.00 14.78    -0.027 A 
HETATM    8  C4A HEM A 142       8.543  12.197  30.973  1.00 14.59     0.041 A 
HETATM    9  CMA HEM A 142       8.841  11.391  33.478  1.00 14.58     0.051 C 
HETATM   10  C1B HEM A 142       7.567  14.357  30.382  1.00 12.58     0.041 A 
HETATM   11  C2B HEM A 142       7.011  15.644  30.746  1.00 13.07    -0.023 A 
HETATM   12  C3B HEM A 142       6.615  16.245  29.621  1.00 11.69    -0.002 A 
HETATM   13  C4B HEM A 142       6.954  15.348  28.512  1.00  9.89     0.045 A 
HETATM   14  CMB HEM A 142       6.897  16.186  32.193  1.00 11.38     0.051 C 
HETATM   15  C1C HEM A 142       6.811  14.666  26.186  1.00  7.48     0.041 A 
HETATM   16  C2C HEM A 142       6.305  14.828  24.820  1.00  9.04    -0.023 A 
HETATM   17  C3C HEM A 142       6.600  13.716  24.150  1.00  8.23    -0.002 A 
HETATM   18  C4C HEM A 142       7.255  12.804  25.066  1.00  9.42     0.045 A 
HETATM   19  CMC HEM A 142       5.620  16.118  24.340  1.00 11.32     0.051 C 
HETATM   20  C1D HEM A 142       8.255  10.662  25.653  1.00  8.17     0.041 A 
HETATM   21  C2D HEM A 142       8.641   9.290  25.355  1.00 11.33    -0.027 A 
HETATM   22  C3D HEM A 142       9.116   8.737  26.480  1.00 10.91    -0.023 A 
HETATM   23  C4D HEM A 142       9.062   9.739  27.506  1.00 10.25     0.041 A 
HETATM   24  CMD HEM A 142       8.508   8.620  23.981  1.00  7.70     0.051 C 
HETATM   25  NA  HEM A 142       8.694  11.707  29.683  1.00 13.54    -0.355 N 
HETATM   26  HA  HEM A 142       8.504  12.193  28.807  1.00  0.00     0.166 HD
HETATM   27  NB  HEM A 142       7.525  14.199  28.994  1.00 11.26    -0.355 N 
HETATM   28  HB  HEM A 142       7.852  13.398  28.454  1.00  0.00     0.166 HD
HETATM   29  NC  HEM A 142       7.386  13.423  26.306  1.00  8.38    -0.355 N 
HETATM   30  HC  HEM A 142       7.823  13.031  27.141  1.00  0.00     0.166 HD
HETATM   31  ND  HEM A 142       8.515  10.902  26.972  1.00 10.59    -0.355 N 
HETATM   32  HD  HEM A 142       8.340  11.773  27.474  1.00  0.00     0.166 HD
ENDROOT
BRANCH   6  33
HETATM   33  CAA HEM A 142       9.810   8.755  31.840  1.00 13.99     0.052 C 
BRANCH  33  34
HETATM   34  CBA HEM A 142      11.171   8.331  31.253  1.00 19.03     0.118 C 
BRANCH  34  35
HETATM   35  CGA HEM A 142      12.201   7.776  32.213  1.00 23.98     0.172 C 
HETATM   36  O2A HEM A 142      12.044   7.943  33.433  1.00 22.84    -0.648 OA
HETATM   37  O1A HEM A 142      13.150   7.127  31.712  1.00 28.12    -0.648 OA
ENDBRANCH  34  35
ENDBRANCH  33  34
ENDBRANCH   6  33
BRANCH  22  38
HETATM   38  CAD HEM A 142       9.658   7.291  26.682  1.00 12.19     0.052 C 
BRANCH  38  39
HETATM   39  CBD HEM A 142       8.525   6.282  26.415  1.00 14.64     0.118 C 
BRANCH  39  40
HETATM   40  CGD HEM A 142       8.872   5.159  25.430  1.00 15.56     0.172 C 
HETATM   41  O1D HEM A 142       8.393   5.286  24.298  1.00 18.46    -0.648 OA
HETATM   42  O2D HEM A 142       9.617   4.267  25.851  1.00 17.66    -0.648 OA
ENDBRANCH  39  40
ENDBRANCH  38  39
ENDBRANCH  22  38
BRANCH  17  43
HETATM   43  CAC HEM A 142       6.295  13.318  22.693  1.00  8.91     0.004 C 
HETATM   44  CBC HEM A 142       5.022  13.122  22.310  1.00 10.56     0.012 C 
ENDBRANCH  17  43
BRANCH  12  45
HETATM   45  CAB HEM A 142       5.967  17.622  29.404  1.00 14.43     0.004 C 
HETATM   46  CBB HEM A 142       6.327  18.686  30.131  1.00 14.85     0.012 C 
ENDBRANCH  12  45
TORSDOF 32
ENDMDL
MODEL 3
REMARK VINA RESULT:     -10.9      3.321      7.275
REMARK  32 active torsions:
REMARK  status: ('A' for Active; 'I' for Inactive)
REMARK    1  A    between atoms: C2A_10  and  CAA_17 
REMARK    2  A    between atoms: CAA_17  and  CBA_20 
REMARK    3  A    between atoms: CBA_20  and  CGA_23 
REMARK    4  A    between atoms: C3B_28  and  CAB_34 
REMARK    5  A    between atoms: C3C_41  and  CAC_47 
REMARK    6  A    between atoms: C3D_54  and  CAD_60 
REMARK    7  A    between atoms: CAD_60  and  CBD_63 
REMARK    8  A    between atoms: CBD_63  and  CGD_66 
REMARK    9  A    between atoms: C2A_86  and  CAA_93 
REMARK   10  A    between atoms: CAA_93  and  CBA_96 
REMARK   11  A    between atoms: CBA_96  and  CGA_99 
REMARK   12  A    between atoms: C3B_104  and  CAB_110 
REMARK   13  A    between atoms: C3C_117  and  CAC_123 
REMARK   14  A    between atoms: C3D_130  and  CAD_136 
REMARK   15  A    between atoms: CAD_136  and  CBD_139 
REMARK   16  A    between atoms: CBD_139  and  CGD_142 
REMARK   17  A    between atoms: C2A_162  and  CAA_169 
REMARK   18  A    between atoms: CAA_169  and  CBA_172 
REMARK   19  A    between atoms: CBA_172  and  CGA_175 
REMARK   20  A    between atoms: C3B_180  and  CAB_186 
REMARK   21  A    between atoms: C3C_193  and  CAC_199 
REMARK   22  A    between atoms: C3D_206  and  CAD_212 
REMARK   23  A    between atoms: CAD_212  and  CBD_215 
REMARK   24  A    between atoms: CBD_215  and  CGD_218 
REMARK   25  A    between atoms: C2A_238  and  CAA_245 
REMARK   26  A    between atoms: CAA_245  and  CBA_248 
REMARK   27  A    between atoms: CBA_248  and  CGA_251 
REMARK   28  A    between atoms: C3B_256  and  CAB_262 
REMARK   29  A    between atoms: C3C_269  and  CAC_275 
REMARK   30  A    between atoms: C3D_282  and  CAD_288 
REMARK   31  A    between atoms: CAD_288  and  CBD_291 
REMARK   32  A    between atoms: CBD_291  and  CGD_294 
ROOT
HETATM    1  CHA HEM A 142       8.913   9.492  29.117  1.00 12.71     0.060 C 
HETATM    2  CHB HEM A 142       7.622  11.469  24.904  1.00 15.63     0.060 C 
HETATM    3  CHC HEM A 142       6.252  15.555  27.191  1.00  9.88     0.060 C 
HETATM    4  CHD HEM A 142       7.973  13.706  31.391  1.00  7.91     0.060 C 
HETATM    5  C1A HEM A 142       8.719   9.710  27.761  1.00 12.45     0.041 A 
HETATM    6  C2A HEM A 142       9.098   8.785  26.706  1.00 13.35    -0.023 A 
HETATM    7  C3A HEM A 142       8.749   9.321  25.549  1.00 14.78    -0.027 A 
HETATM    8  C4A HEM A 142       8.105  10.598  25.854  1.00 14.59     0.041 A 
HETATM    9  CMA HEM A 142       8.939   8.786  24.112  1.00 14.58     0.051 C 
HETATM   10  C1B HEM A 142       7.148  12.743  25.181  1.00 12.58     0.041 A 
HETATM   11  C2B HEM A 142       6.697  13.672  24.165  1.00 13.07    -0.023 A 
HETATM   12  C3B HEM A 142       6.334  14.800  24.783  1.00 11.69    -0.002 A 
HETATM   13  C4B HEM A 142       6.521  14.582  26.221  1.00  9.89     0.045 A 
HETATM   14  CMB HEM A 142       6.669  13.381  22.644  1.00 11.38     0.051 C 
HETATM   15  C1C HEM A 142       6.659  15.380  28.510  1.00  7.48     0.041 A 
HETATM   16  C2C HEM A 142       6.634  16.452  29.509  1.00  9.04    -0.023 A 
HETATM   17  C3C HEM A 142       7.085  15.942  30.653  1.00  8.23    -0.002 A 
HETATM   18  C4C HEM A 142       7.447  14.560  30.413  1.00  9.42     0.045 A 
HETATM   19  CMC HEM A 142       6.109  17.863  29.194  1.00 11.32     0.051 C 
HETATM   20  C1D HEM A 142       8.373  12.411  31.087  1.00  8.17     0.041 A 
HETATM   21  C2D HEM A 142       9.014  11.522  32.046  1.00 11.33    -0.027 A 
HETATM   22  C3D HEM A 142       9.288  10.366  31.425  1.00 10.91    -0.023 A 
HETATM   23  C4D HEM A 142       8.816  10.483  30.074  1.00 10.25     0.041 A 
HETATM   24  CMD HEM A 142       9.316  11.880  33.507  1.00  7.70     0.051 C 
HETATM   25  NA  HEM A 142       8.101  10.820  27.224  1.00 13.54    -0.355 N 
HETATM   26  HA  HEM A 142       7.724  11.626  27.723  1.00  0.00     0.166 HD
HETATM   27  NB  HEM A 142       7.025  13.327  26.444  1.00 11.26    -0.355 N 
HETATM   28  HB  HEM A 142       7.261  12.908  27.344  1.00  0.00     0.166 HD
HETATM   29  NC  HEM A 142       7.158  14.238  29.090  1.00  8.38    -0.355 N 
HETATM   30  HC  HEM A 142       7.290  13.332  28.639  1.00  0.00     0.166 HD
HETATM   31  ND  HEM A 142       8.276  11.753  29.894  1.00 10.59    -0.355 N 
HETATM   32  HD  HEM A 142       7.880  12.124  29.030  1.00  0.00     0.166 HD
ENDROOT
BRANCH   6  33
HETATM   33  CAA HEM A 142       9.812   7.414  26.927  1.00 13.99     0.052 C 
BRANCH  33  34
HETATM   34  CBA HEM A 142       8.840   6.220  26.852  1.00 19.03     0.118 C 
BRANCH  34  35
HETATM   35  CGA HEM A 142       8.974   5.287  25.667  1.00 23.98     0.172 C 
HETATM   36  O2A HEM A 142       8.421   5.585  24.596  1.00 22.84    -0.648 OA
HETATM   37  O1A HEM A 142       9.686   4.268  25.828  1.00 28.12    -0.648 OA
ENDBRANCH  34  35
ENDBRANCH  33  34
ENDBRANCH   6  33
BRANCH  22  38
HETATM   38  CAD HEM A 142       9.968   9.097  32.018  1.00 12.19     0.052 C 
BRANCH  38  39
HETATM   39  CBD HEM A 142      11.024   8.576  31.025  1.00 14.64     0.118 C 
BRANCH  39  40
HETATM   40  CGD HEM A 142      12.222   7.863  31.664  1.00 15.56     0.172 C 
HETATM   41  O1D HEM A 142      12.199   7.799  32.898  1.00 18.46    -0.648 OA
HETATM   42  O2D HEM A 142      13.064   7.397  30.889  1.00 17.66    -0.648 OA
ENDBRANCH  39  40
ENDBRANCH  38  39
ENDBRANCH  22  38
BRANCH  17  43
HETATM   43  CAC HEM A 142       7.298  16.608  32.026  1.00  8.91     0.004 C 
HETATM   44  CBC HEM A 142       8.347  17.427  32.212  1.00 10.56     0.012 C 
ENDBRANCH  17  43
BRANCH  12  45
HETATM   45  CAB HEM A 142       5.773  16.111  24.209  1.00 14.43     0.004 C 
HETATM   46  CBB HEM A 142       6.531  16.933  23.475  1.00 14.85     0.012 C 
ENDBRANCH  12  45
TORSDOF 32
ENDMDL
MODEL 4
REMARK VINA RESULT:     -10.6      4.008      7.852
REMARK  32 active torsions:
REMARK  status: ('A' for Active; 'I' for Inactive)
REMARK    1  A    between atoms: C2A_10  and  CAA_17 
REMARK    2  A    between atoms: CAA_17  and  CBA_20 
REMARK    3  A    between atoms: CBA_20  and  CGA_23 
REMARK    4  A    between atoms: C3B_28  and  CAB_34 
REMARK    5  A    between atoms: C3C_41  and  CAC_47 
REMARK    6  A    between atoms: C3D_54  and  CAD_60 
REMARK    7  A    between atoms: CAD_60  and  CBD_63 
REMARK    8  A    between atoms: CBD_63  and  CGD_66 
REMARK    9  A    between atoms: C2A_86  and  CAA_93 
REMARK   10  A    between atoms: CAA_93  and  CBA_96 
REMARK   11  A    between atoms: CBA_96  and  CGA_99 
REMARK   12  A    between atoms: C3B_104  and  CAB_110 
REMARK   13  A    between atoms: C3C_117  and  CAC_123 
REMARK   14  A    between atoms: C3D_130  and  CAD_136 
REMARK   15  A    between atoms: CAD_136  and  CBD_139 
REMARK   16  A    between atoms: CBD_139  and  CGD_142 
REMARK   17  A    between atoms: C2A_162  and  CAA_169 
REMARK   18  A    between atoms: CAA_169  and  CBA_172 
REMARK   19  A    between atoms: CBA_172  and  CGA_175 
REMARK   20  A    between atoms: C3B_180  and  CAB_186 
REMARK   21  A    between atoms: C3C_193  and  CAC_199 
REMARK   22  A    between atoms: C3D_206  and  CAD_212 
REMARK   23  A    between atoms: CAD_212  and  CBD_215 
REMARK   24  A    between atoms: CBD_215  and  CGD_218 
REMARK   25  A    between atoms: C2A_238  and  CAA_245 
REMARK   26  A    between atoms: CAA_245  and  CBA_248 
REMARK   27  A    between atoms: CBA_248  and  CGA_251 
REMARK   28  A    between atoms: C3B_256  and  CAB_262 
REMARK   29  A    between atoms: C3C_269  and  CAC_275 
REMARK   30  A    between atoms: C3D_282  and  CAD_288 
REMARK   31  A    between atoms: CAD_288  and  CBD_291 
REMARK   32  A    between atoms: CBD_291  and  CGD_294 
ROOT
HETATM    1  CHA HEM A 142       7.749  11.380  26.719  1.00 12.71     0.060 C 
HETATM    2  CHB HEM A 142       6.368  15.891  27.750  1.00 15.63     0.060 C 
HETATM    3  CHC HEM A 142       7.365  15.165  32.471  1.00  9.88     0.060 C 
HETATM    4  CHD HEM A 142       9.174  10.752  31.345  1.00  7.91     0.060 C 
HETATM    5  C1A HEM A 142       7.332  12.696  26.599  1.00 12.45     0.041 A 
HETATM    6  C2A HEM A 142       7.035  13.364  25.343  1.00 13.35    -0.023 A 
HETATM    7  C3A HEM A 142       6.658  14.601  25.617  1.00 14.78    -0.027 A 
HETATM    8  C4A HEM A 142       6.678  14.734  27.073  1.00 14.59     0.041 A 
HETATM    9  CMA HEM A 142       6.257  15.749  24.664  1.00 14.58     0.051 C 
HETATM   10  C1B HEM A 142       6.531  16.064  29.117  1.00 12.58     0.041 A 
HETATM   11  C2B HEM A 142       6.256  17.306  29.810  1.00 13.07    -0.023 A 
HETATM   12  C3B HEM A 142       6.541  17.120  31.101  1.00 11.69    -0.002 A 
HETATM   13  C4B HEM A 142       6.973  15.726  31.250  1.00  9.89     0.045 A 
HETATM   14  CMB HEM A 142       5.739  18.603  29.137  1.00 11.38     0.051 C 
HETATM   15  C1C HEM A 142       7.978  13.917  32.519  1.00  7.48     0.041 A 
HETATM   16  C2C HEM A 142       8.633  13.388  33.719  1.00  9.04    -0.023 A 
HETATM   17  C3C HEM A 142       9.107  12.181  33.415  1.00  8.23    -0.002 A 
HETATM   18  C4C HEM A 142       8.813  11.924  32.020  1.00  9.42     0.045 A 
HETATM   19  CMC HEM A 142       8.659  14.154  35.051  1.00 11.32     0.051 C 
HETATM   20  C1D HEM A 142       8.932  10.590  29.986  1.00  8.17     0.041 A 
HETATM   21  C2D HEM A 142       9.376   9.431  29.224  1.00 11.33    -0.027 A 
HETATM   22  C3D HEM A 142       9.000   9.603  27.948  1.00 10.91    -0.023 A 
HETATM   23  C4D HEM A 142       8.298  10.853  27.873  1.00 10.25     0.041 A 
HETATM   24  CMD HEM A 142      10.145   8.239  29.808  1.00  7.70     0.051 C 
HETATM   25  NA  HEM A 142       7.101  13.549  27.659  1.00 13.54    -0.355 N 
HETATM   26  HA  HEM A 142       7.216  13.352  28.653  1.00  0.00     0.166 HD
HETATM   27  NB  HEM A 142       6.968  15.101  30.030  1.00 11.26    -0.355 N 
HETATM   28  HB  HEM A 142       7.229  14.135  29.831  1.00  0.00     0.166 HD
HETATM   29  NC  HEM A 142       8.102  13.003  31.500  1.00  8.38    -0.355 N 
HETATM   30  HC  HEM A 142       7.744  13.097  30.549  1.00  0.00     0.166 HD
HETATM   31  ND  HEM A 142       8.288  11.441  29.134  1.00 10.59    -0.355 N 
HETATM   32  HD  HEM A 142       7.875  12.341  29.377  1.00  0.00     0.166 HD
ENDROOT
BRANCH   6  33
HETATM   33  CAA HEM A 142       7.169  12.716  23.928  1.00 13.99     0.052 C 
BRANCH  33  34
HETATM   34  CBA HEM A 142       5.945  12.991  23.032  1.00 19.03     0.118 C 
BRANCH  34  35
HETATM   35  CGA HEM A 142       6.202  13.249  21.562  1.00 23.98     0.172 C 
HETATM   36  O2A HEM A 142       7.349  13.103  21.113  1.00 22.84    -0.648 OA
HETATM   37  O1A HEM A 142       5.210  13.561  20.861  1.00 28.12    -0.648 OA
ENDBRANCH  34  35
ENDBRANCH  33  34
ENDBRANCH   6  33
BRANCH  22  38
HETATM   38  CAD HEM A 142       9.236   8.645  26.743  1.00 12.19     0.052 C 
BRANCH  38  39
HETATM   39  CBD HEM A 142       8.167   7.535  26.761  1.00 14.64     0.118 C 
BRANCH  39  40
HETATM   40  CGD HEM A 142       8.482   6.314  25.888  1.00 15.56     0.172 C 
HETATM   41  O1D HEM A 142       8.600   5.247  26.501  1.00 18.46    -0.648 OA
HETATM   42  O2D HEM A 142       8.550   6.511  24.670  1.00 17.66    -0.648 OA
ENDBRANCH  39  40
ENDBRANCH  38  39
ENDBRANCH  22  38
BRANCH  17  43
HETATM   43  CAC HEM A 142       9.901  11.177  34.273  1.00  8.91     0.004 C 
HETATM   44  CBC HEM A 142       9.315  10.604  35.338  1.00 10.56     0.012 C 
ENDBRANCH  17  43
BRANCH  12  45
HETATM   45  CAB HEM A 142       6.432  18.085  32.293  1.00 14.43     0.004 C 
HETATM   46  CBB HEM A 142       7.381  18.994  32.545  1.00 14.85     0.012 C 
ENDBRANCH  12  45
TORSDOF 32
ENDMDL
MODEL 5
REMARK VINA RESULT:     -10.4      1.324      6.056
REMARK  32 active torsions:
REMARK  status: ('A' for Active; 'I' for Inactive)
REMARK    1  A    between atoms: C2A_10  and  CAA_17 
REMARK    2  A    between atoms: CAA_17  and  CBA_20 
REMARK    3  A    between atoms: CBA_20  and  CGA_23 
REMARK    4  A    between atoms: C3B_28  and  CAB_34 
REMARK    5  A    between atoms: C3C_41  and  CAC_47 
REMARK    6  A    between atoms: C3D_54  and  CAD_60 
REMARK    7  A    between atoms: CAD_60  and  CBD_63 
REMARK    8  A    between atoms: CBD_63  and  CGD_66 
REMARK    9  A    between atoms: C2A_86  and  CAA_93 
REMARK   10  A    between atoms: CAA_93  and  CBA_96 
REMARK   11  A    between atoms: CBA_96  and  CGA_99 
REMARK   12  A    between atoms: C3B_104  and  CAB_110 
REMARK   13  A    between atoms: C3C_117  and  CAC_123 
REMARK   14  A    between atoms: C3D_130  and  CAD_136 
REMARK   15  A    between atoms: CAD_136  and  CBD_139 
REMARK   16  A    between atoms: CBD_139  and  CGD_142 
REMARK   17  A    between atoms: C2A_162  and  CAA_169 
REMARK   18  A    between atoms: CAA_169  and  CBA_172 
REMARK   19  A    between atoms: CBA_172  and  CGA_175 
REMARK   20  A    between atoms: C3B_180  and  CAB_186 
REMARK   21  A    between atoms: C3C_193  and  CAC_199 
REMARK   22  A    between atoms: C3D_206  and  CAD_212 
REMARK   23  A    between atoms: CAD_212  and  CBD_215 
REMARK   24  A    between atoms: CBD_215  and  CGD_218 
REMARK   25  A    between atoms: C2A_238  and  CAA_245 
REMARK   26  A    between atoms: CAA_245  and  CBA_248 
REMARK   27  A    between atoms: CBA_248  and  CGA_251 
REMARK   28  A    between atoms: C3B_256  and  CAB_262 
REMARK   29  A    between atoms: C3C_269  and  CAC_275 
REMARK   30  A    between atoms: C3D_282  and  CAD_288 
REMARK   31  A    between atoms: CAD_288  and  CBD_291 
REMARK   32  A    between atoms: CBD_291  and  CGD_294 
ROOT
HETATM    1  CHA HEM A 142       7.774  13.629  31.719  1.00 12.71     0.060 C 
HETATM    2  CHB HEM A 142       9.086   9.524  29.542  1.00 15.63     0.060 C 
HETATM    3  CHC HEM A 142       7.383  11.186  25.282  1.00  9.88     0.060 C 
HETATM    4  CHD HEM A 142       6.463  15.504  27.409  1.00  7.91     0.060 C 
HETATM    5  C1A HEM A 142       8.322  12.381  31.469  1.00 12.45     0.041 A 
HETATM    6  C2A HEM A 142       9.037  11.573  32.444  1.00 13.35    -0.023 A 
HETATM    7  C3A HEM A 142       9.401  10.448  31.853  1.00 14.78    -0.027 A 
HETATM    8  C4A HEM A 142       8.890  10.506  30.485  1.00 14.59     0.041 A 
HETATM    9  CMA HEM A 142      10.204   9.252  32.411  1.00 14.58     0.051 C 
HETATM   10  C1B HEM A 142       8.734   9.641  28.205  1.00 12.58     0.041 A 
HETATM   11  C2B HEM A 142       8.999   8.622  27.210  1.00 13.07    -0.023 A 
HETATM   12  C3B HEM A 142       8.549   9.077  26.037  1.00 11.69    -0.002 A 
HETATM   13  C4B HEM A 142       7.953  10.393  26.286  1.00  9.89     0.045 A 
HETATM   14  CMB HEM A 142       9.695   7.266  27.490  1.00 11.38     0.051 C 
HETATM   15  C1C HEM A 142       7.041  12.511  25.527  1.00  7.48     0.041 A 
HETATM   16  C2C HEM A 142       6.678  13.458  24.469  1.00  9.04    -0.023 A 
HETATM   17  C3C HEM A 142       6.411  14.625  25.051  1.00  8.23    -0.002 A 
HETATM   18  C4C HEM A 142       6.633  14.475  26.475  1.00  9.42     0.045 A 
HETATM   19  CMC HEM A 142       6.601  13.051  22.988  1.00 11.32     0.051 C 
HETATM   20  C1D HEM A 142       6.763  15.324  28.753  1.00  8.17     0.041 A 
HETATM   21  C2D HEM A 142       6.694  16.393  29.741  1.00 11.33    -0.027 A 
HETATM   22  C3D HEM A 142       7.066  15.888  30.926  1.00 10.91    -0.023 A 
HETATM   23  C4D HEM A 142       7.360  14.497  30.727  1.00 10.25     0.041 A 
HETATM   24  CMD HEM A 142       6.270  17.836  29.444  1.00  7.70     0.051 C 
HETATM   25  NA  HEM A 142       8.232  11.708  30.267  1.00 13.54    -0.355 N 
HETATM   26  HA  HEM A 142       7.781  12.025  29.409  1.00  0.00     0.166 HD
HETATM   27  NB  HEM A 142       8.083  10.725  27.610  1.00 11.26    -0.355 N 
HETATM   28  HB  HEM A 142       7.769  11.582  28.066  1.00  0.00     0.166 HD
HETATM   29  NC  HEM A 142       7.003  13.159  26.740  1.00  8.38    -0.355 N 
HETATM   30  HC  HEM A 142       7.206  12.754  27.654  1.00  0.00     0.166 HD
HETATM   31  ND  HEM A 142       7.180  14.186  29.382  1.00 10.59    -0.355 N 
HETATM   32  HD  HEM A 142       7.332  13.276  28.947  1.00  0.00     0.166 HD
ENDROOT
BRANCH   6  33
HETATM   33  CAA HEM A 142       9.329  11.997  33.918  1.00 13.99     0.052 C 
BRANCH  33  34
HETATM   34  CBA HEM A 142       8.317  11.401  34.918  1.00 19.03     0.118 C 
BRANCH  34  35
HETATM   35  CGA HEM A 142       6.879  11.861  34.811  1.00 23.98     0.172 C 
HETATM   36  O2A HEM A 142       6.116  11.285  34.019  1.00 22.84    -0.648 OA
HETATM   37  O1A HEM A 142       6.524  12.789  35.576  1.00 28.12    -0.648 OA
ENDBRANCH  34  35
ENDBRANCH  33  34
ENDBRANCH   6  33
BRANCH  22  38
HETATM   38  CAD HEM A 142       7.157  16.625  32.295  1.00 12.19     0.052 C 
BRANCH  38  39
HETATM   39  CBD HEM A 142       8.525  17.325  32.405  1.00 14.64     0.118 C 
BRANCH  39  40
HETATM   40  CGD HEM A 142       8.471  18.857  32.446  1.00 15.56     0.172 C 
HETATM   41  O1D HEM A 142       7.335  19.343  32.421  1.00 18.46    -0.648 OA
HETATM   42  O2D HEM A 142       9.554  19.444  32.536  1.00 17.66    -0.648 OA
ENDBRANCH  39  40
ENDBRANCH  38  39
ENDBRANCH  22  38
BRANCH  17  43
HETATM   43  CAC HEM A 142       6.003  15.977  24.434  1.00  8.91     0.004 C 
HETATM   44  CBC HEM A 142       6.930  16.739  23.829  1.00 10.56     0.012 C 
ENDBRANCH  17  43
BRANCH  12  45
HETATM   45  CAB HEM A 142       8.555   8.420  24.648  1.00 14.43     0.004 C 
HETATM   46  CBB HEM A 142       9.626   8.485  23.849  1.00 14.85     0.012 C 
ENDBRANCH  12  45
TORSDOF 32
ENDMDL
MODEL 6
REMARK VINA RESULT:     -10.3      4.151      9.778
REMARK  32 active torsions:
REMARK  status: ('A' for Active; 'I' for Inactive)
REMARK    1  A    between atoms: C2A_10  and  CAA_17 
REMARK    2  A    between atoms: CAA_17  and  CBA_20 
REMARK    3  A    between atoms: CBA_20  and  CGA_23 
REMARK    4  A    between atoms: C3B_28  and  CAB_34 
REMARK    5  A    between atoms: C3C_41  and  CAC_47 
REMARK    6  A    between atoms: C3D_54  and  CAD_60 
REMARK    7  A    between atoms: CAD_60  and  CBD_63 
REMARK    8  A    between atoms: CBD_63  and  CGD_66 
REMARK    9  A    between atoms: C2A_86  and  CAA_93 
REMARK   10  A    between atoms: CAA_93  and  CBA_96 
REMARK   11  A    between atoms: CBA_96  and  CGA_99 
REMARK   12  A    between atoms: C3B_104  and  CAB_110 
REMARK   13  A    between atoms: C3C_117  and  CAC_123 
REMARK   14  A    between atoms: C3D_130  and  CAD_136 
REMARK   15  A    between atoms: CAD_136  and  CBD_139 
REMARK   16  A    between atoms: CBD_139  and  CGD_142 
REMARK   17  A    between atoms: C2A_162  and  CAA_169 
REMARK   18  A    between atoms: CAA_169  and  CBA_172 
REMARK   19  A    between atoms: CBA_172  and  CGA_175 
REMARK   20  A    between atoms: C3B_180  and  CAB_186 
REMARK   21  A    between atoms: C3C_193  and  CAC_199 
REMARK   22  A    between atoms: C3D_206  and  CAD_212 
REMARK   23  A    between atoms: CAD_212  and  CBD_215 
REMARK   24  A    between atoms: CBD_215  and  CGD_218 
REMARK   25  A    between atoms: C2A_238  and  CAA_245 
REMARK   26  A    between atoms: CAA_245  and  CBA_248 
REMARK   27  A    between atoms: CBA_248  and  CGA_251 
REMARK   28  A    between atoms: C3B_256  and  CAB_262 
REMARK   29  A    between atoms: C3C_269  and  CAC_275 
REMARK   30  A    between atoms: C3D_282  and  CAD_288 
REMARK   31  A    between atoms: CAD_288  and  CBD_291 
REMARK   32  A    between atoms: CBD_291  and  CGD_294 
ROOT
HETATM    1  CHA HEM A 142       7.688  11.400  25.281  1.00 12.71     0.060 C 
HETATM    2  CHB HEM A 142       9.071   9.882  29.651  1.00 15.63     0.060 C 
HETATM    3  CHC HEM A 142       8.167  14.297  31.520  1.00  9.88     0.060 C 
HETATM    4  CHD HEM A 142       6.353  15.690  27.186  1.00  7.91     0.060 C 
HETATM    5  C1A HEM A 142       8.098  10.598  26.334  1.00 12.45     0.041 A 
HETATM    6  C2A HEM A 142       8.369   9.173  26.241  1.00 13.35    -0.023 A 
HETATM    7  C3A HEM A 142       8.746   8.750  27.435  1.00 14.78    -0.027 A 
HETATM    8  C4A HEM A 142       8.754   9.919  28.313  1.00 14.59     0.041 A 
HETATM    9  CMA HEM A 142       9.125   7.329  27.908  1.00 14.58     0.051 C 
HETATM   10  C1B HEM A 142       8.935  10.957  30.518  1.00 12.58     0.041 A 
HETATM   11  C2B HEM A 142       9.218  10.888  31.936  1.00 13.07    -0.023 A 
HETATM   12  C3B HEM A 142       8.957  12.090  32.458  1.00 11.69    -0.002 A 
HETATM   13  C4B HEM A 142       8.534  12.956  31.353  1.00  9.89     0.045 A 
HETATM   14  CMB HEM A 142       9.717   9.625  32.683  1.00 11.38     0.051 C 
HETATM   15  C1C HEM A 142       7.559  15.004  30.488  1.00  7.48     0.041 A 
HETATM   16  C2C HEM A 142       6.929  16.315  30.672  1.00  9.04    -0.023 A 
HETATM   17  C3C HEM A 142       6.453  16.699  29.489  1.00  8.23    -0.002 A 
HETATM   18  C4C HEM A 142       6.723  15.642  28.536  1.00  9.42     0.045 A 
HETATM   19  CMC HEM A 142       6.925  17.046  32.024  1.00 11.32     0.051 C 
HETATM   20  C1D HEM A 142       6.570  14.615  26.332  1.00  8.17     0.041 A 
HETATM   21  C2D HEM A 142       6.116  14.583  24.949  1.00 11.33    -0.027 A 
HETATM   22  C3D HEM A 142       6.467  13.401  24.423  1.00 10.91    -0.023 A 
HETATM   23  C4D HEM A 142       7.163  12.668  25.442  1.00 10.25     0.041 A 
HETATM   24  CMD HEM A 142       5.362  15.720  24.247  1.00  7.70     0.051 C 
HETATM   25  NA  HEM A 142       8.346  11.048  27.615  1.00 13.54    -0.355 N 
HETATM   26  HA  HEM A 142       8.251  11.999  27.970  1.00  0.00     0.166 HD
HETATM   27  NB  HEM A 142       8.518  12.247  30.181  1.00 11.26    -0.355 N 
HETATM   28  HB  HEM A 142       8.257  12.590  29.255  1.00  0.00     0.166 HD
HETATM   29  NC  HEM A 142       7.419  14.620  29.176  1.00  8.38    -0.355 N 
HETATM   30  HC  HEM A 142       7.760  13.756  28.753  1.00  0.00     0.166 HD
HETATM   31  ND  HEM A 142       7.195  13.432  26.605  1.00 10.59    -0.355 N 
HETATM   32  HD  HEM A 142       7.609  13.158  27.496  1.00  0.00     0.166 HD
ENDROOT
BRANCH   6  33
HETATM   33  CAA HEM A 142       8.211   8.313  24.947  1.00 13.99     0.052 C 
BRANCH  33  34
HETATM   34  CBA HEM A 142       9.317   7.248  24.804  1.00 19.03     0.118 C 
BRANCH  34  35
HETATM   35  CGA HEM A 142       8.888   5.796  24.790  1.00 23.98     0.172 C 
HETATM   36  O2A HEM A 142       8.166   5.387  23.866  1.00 22.84    -0.648 OA
HETATM   37  O1A HEM A 142       9.332   5.066  25.707  1.00 28.12    -0.648 OA
ENDBRANCH  34  35
ENDBRANCH  33  34
ENDBRANCH   6  33
BRANCH  22  38
HETATM   38  CAD HEM A 142       6.212  12.883  22.976  1.00 12.19     0.052 C 
BRANCH  38  39
HETATM   39  CBD HEM A 142       7.563  12.708  22.256  1.00 14.64     0.118 C 
BRANCH  39  40
HETATM   40  CGD HEM A 142       7.474  12.572  20.731  1.00 15.56     0.172 C 
HETATM   41  O1D HEM A 142       7.909  13.536  20.091  1.00 18.46    -0.648 OA
HETATM   42  O2D HEM A 142       7.014  11.510  20.298  1.00 17.66    -0.648 OA
ENDBRANCH  39  40
ENDBRANCH  38  39
ENDBRANCH  22  38
BRANCH  17  43
HETATM   43  CAC HEM A 142       5.680  17.971  29.091  1.00  8.91     0.004 C 
HETATM   44  CBC HEM A 142       6.067  19.163  29.575  1.00 10.56     0.012 C 
ENDBRANCH  17  43
BRANCH  12  45
HETATM   45  CAB HEM A 142       9.085  12.595  33.905  1.00 14.43     0.004 C 
HETATM   46  CBB HEM A 142      10.193  13.211  34.334  1.00 14.85     0.012 C 
ENDBRANCH  12  45
TORSDOF 32
ENDMDL
MODEL 7
REMARK VINA RESULT:     -10.3      2.353      6.599
REMARK  32 active torsions:
REMARK  status: ('A' for Active; 'I' for Inactive)
REMARK    1  A    between atoms: C2A_10  and  CAA_17 
REMARK    2  A    between atoms: CAA_17  and  CBA_20 
REMARK    3  A    between atoms: CBA_20  and  CGA_23 
REMARK    4  A    between atoms: C3B_28  and  CAB_34 
REMARK    5  A    between atoms: C3C_41  and  CAC_47 
REMARK    6  A    between atoms: C3D_54  and  CAD_60 
REMARK    7  A    between atoms: CAD_60  and  CBD_63 
REMARK    8  A    between atoms: CBD_63  and  CGD_66 
REMARK    9  A    between atoms: C2A_86  and  CAA_93 
REMARK   10  A    between atoms: CAA_93  and  CBA_96 
REMARK   11  A    between atoms: CBA_96  and  CGA_99 
REMARK   12  A    between atoms: C3B_104  and  CAB_110 
REMARK   13  A    between atoms: C3C_117  and  CAC_123 
REMARK   14  A    between atoms: C3D_130  and  CAD_136 
REMARK   15  A    between atoms: CAD_136  and  CBD_139 
REMARK   16  A    between atoms: CBD_139  and  CGD_142 
REMARK   17  A    between atoms: C2A_162  and  CAA_169 
REMARK   18  A    between atoms: CAA_169  and  CBA_172 
REMARK   19  A    between atoms: CBA_172  and  CGA_175 
REMARK   20  A    between atoms: C3B_180  and  CAB_186 
REMARK   21  A    between atoms: C3C_193  and  CAC_199 
REMARK   22  A    between atoms: C3D_206  and  CAD_212 
REMARK   23  A    between atoms: CAD_212  and  CBD_215 
REMARK   24  A    between atoms: CBD_215  and  CGD_218 
REMARK   25  A    between atoms: C2A_238  and  CAA_245 
REMARK   26  A    between atoms: CAA_245  and  CBA_248 
REMARK   27  A    between atoms: CBA_248  and  CGA_251 
REMARK   28  A    between atoms: C3B_256  and  CAB_262 
REMARK   29  A    between atoms: C3C_269  and  CAC_275 
REMARK   30  A    between atoms: C3D_282  and  CAD_288 
REMARK   31  A    between atoms: CAD_288  and  CBD_291 
REMARK   32  A    between atoms: CBD_291  and  CGD_294 
ROOT
HETATM    1  CHA HEM A 142       9.027  10.696  31.408  1.00 12.71     0.060 C 
HETATM    2  CHB HEM A 142       7.805  11.367  26.784  1.00 15.63     0.060 C 
HETATM    3  CHC HEM A 142       6.121  15.826  27.830  1.00  9.88     0.060 C 
HETATM    4  CHD HEM A 142       7.765  15.301  32.417  1.00  7.91     0.060 C 
HETATM    5  C1A HEM A 142       8.877  10.525  30.040  1.00 12.45     0.041 A 
HETATM    6  C2A HEM A 142       9.349   9.374  29.288  1.00 13.35    -0.023 A 
HETATM    7  C3A HEM A 142       9.020   9.553  28.020  1.00 14.78    -0.027 A 
HETATM    8  C4A HEM A 142       8.295  10.820  27.948  1.00 14.59     0.041 A 
HETATM    9  CMA HEM A 142       9.298   8.660  26.790  1.00 14.58     0.051 C 
HETATM   10  C1B HEM A 142       7.251  12.636  26.690  1.00 12.58     0.041 A 
HETATM   11  C2B HEM A 142       6.792  13.223  25.448  1.00 13.07    -0.023 A 
HETATM   12  C3B HEM A 142       6.344  14.451  25.724  1.00 11.69    -0.002 A 
HETATM   13  C4B HEM A 142       6.482  14.644  27.171  1.00  9.89     0.045 A 
HETATM   14  CMB HEM A 142       6.843  12.528  24.064  1.00 11.38     0.051 C 
HETATM   15  C1C HEM A 142       6.481  16.042  29.156  1.00  7.48     0.041 A 
HETATM   16  C2C HEM A 142       6.357  17.341  29.822  1.00  9.04    -0.023 A 
HETATM   17  C3C HEM A 142       6.787  17.191  31.073  1.00  8.23    -0.002 A 
HETATM   18  C4C HEM A 142       7.234  15.822  31.230  1.00  9.42     0.045 A 
HETATM   19  CMC HEM A 142       5.769  18.576  29.120  1.00 11.32     0.051 C 
HETATM   20  C1D HEM A 142       8.248  14.000  32.489  1.00  8.17     0.041 A 
HETATM   21  C2D HEM A 142       8.896  13.448  33.671  1.00 11.33    -0.027 A 
HETATM   22  C3D HEM A 142       9.258  12.187  33.397  1.00 10.91    -0.023 A 
HETATM   23  C4D HEM A 142       8.837  11.902  32.054  1.00 10.25     0.041 A 
HETATM   24  CMD HEM A 142       9.116  14.208  34.985  1.00  7.70     0.051 C 
HETATM   25  NA  HEM A 142       8.222  11.405  29.204  1.00 13.54    -0.355 N 
HETATM   26  HA  HEM A 142       7.782  12.291  29.454  1.00  0.00     0.166 HD
HETATM   27  NB  HEM A 142       7.045  13.532  27.741  1.00 11.26    -0.355 N 
HETATM   28  HB  HEM A 142       7.266  13.389  28.727  1.00  0.00     0.166 HD
HETATM   29  NC  HEM A 142       7.017  15.135  30.039  1.00  8.38    -0.355 N 
HETATM   30  HC  HEM A 142       7.217  14.151  29.857  1.00  0.00     0.166 HD
HETATM   31  ND  HEM A 142       8.236  13.038  31.520  1.00 10.59    -0.355 N 
HETATM   32  HD  HEM A 142       7.856  13.134  30.578  1.00  0.00     0.166 HD
ENDROOT
BRANCH   6  33
HETATM   33  CAA HEM A 142      10.128   8.164  29.894  1.00 13.99     0.052 C 
BRANCH  33  34
HETATM   34  CBA HEM A 142      11.512   8.564  30.443  1.00 19.03     0.118 C 
BRANCH  34  35
HETATM   35  CGA HEM A 142      11.968   7.907  31.729  1.00 23.98     0.172 C 
HETATM   36  O2A HEM A 142      13.026   7.260  31.736  1.00 22.84    -0.648 OA
HETATM   37  O1A HEM A 142      11.256   8.097  32.744  1.00 28.12    -0.648 OA
ENDBRANCH  34  35
ENDBRANCH  33  34
ENDBRANCH   6  33
BRANCH  22  38
HETATM   38  CAD HEM A 142       9.981  11.173  34.332  1.00 12.19     0.052 C 
BRANCH  38  39
HETATM   39  CBD HEM A 142       9.022  10.754  35.463  1.00 14.64     0.118 C 
BRANCH  39  40
HETATM   40  CGD HEM A 142       7.633  10.295  35.002  1.00 15.56     0.172 C 
HETATM   41  O1D HEM A 142       7.618   9.256  34.333  1.00 18.46    -0.648 OA
HETATM   42  O2D HEM A 142       6.675  10.982  35.371  1.00 17.66    -0.648 OA
ENDBRANCH  39  40
ENDBRANCH  38  39
ENDBRANCH  22  38
BRANCH  17  43
HETATM   43  CAC HEM A 142       6.906  18.218  32.217  1.00  8.91     0.004 C 
HETATM   44  CBC HEM A 142       7.930  19.089  32.224  1.00 10.56     0.012 C 
ENDBRANCH  17  43
BRANCH  12  45
HETATM   45  CAB HEM A 142       5.736  15.518  24.799  1.00 14.43     0.004 C 
HETATM   46  CBB HEM A 142       6.489  16.198  23.927  1.00 14.85     0.012 C 
ENDBRANCH  12  45
TORSDOF 32
ENDMDL
MODEL 8
REMARK VINA RESULT:     -10.1      1.403      5.863
REMARK  32 active torsions:
REMARK  status: ('A' for Active; 'I' for Inactive)
REMARK    1  A    between atoms: C2A_10  and  CAA_17 
REMARK    2  A    between atoms: CAA_17  and  CBA_20 
REMARK    3  A    between atoms: CBA_20  and  CGA_23 
REMARK    4  A    between atoms: C3B_28  and  CAB_34 
REMARK    5  A    between atoms: C3C_41  and  CAC_47 
REMARK    6  A    between atoms: C3D_54  and  CAD_60 
REMARK    7  A    between atoms: CAD_60  and  CBD_63 
REMARK    8  A    between atoms: CBD_63  and  CGD_66 
REMARK    9  A    between atoms: C2A_86  and  CAA_93 
REMARK   10  A    between atoms: CAA_93  and  CBA_96 
REMARK   11  A    between atoms: CBA_96  and  CGA_99 
REMARK   12  A    between atoms: C3B_104  and  CAB_110 
REMARK   13  A    between atoms: C3C_117  and  CAC_123 
REMARK   14  A    between atoms: C3D_130  and  CAD_136 
REMARK   15  A    between atoms: CAD_136  and  CBD_139 
REMARK   16  A    between atoms: CBD_139  and  CGD_142 
REMARK   17  A    between atoms: C2A_162  and  CAA_169 
REMARK   18  A    between atoms: CAA_169  and  CBA_172 
REMARK   19  A    between atoms: CBA_172  and  CGA_175 
REMARK   20  A    between atoms: C3B_180  and  CAB_186 
REMARK   21  A    between atoms: C3C_193  and  CAC_199 
REMARK   22  A    between atoms: C3D_206  and  CAD_212 
REMARK   23  A    between atoms: CAD_212  and  CBD_215 
REMARK   24  A    between atoms: CBD_215  and  CGD_218 
REMARK   25  A    between atoms: C2A_238  and  CAA_245 
REMARK   26  A    between atoms: CAA_245  and  CBA_248 
REMARK   27  A    between atoms: CBA_248  and  CGA_251 
REMARK   28  A    between atoms: C3B_256  and  CAB_262 
REMARK   29  A    between atoms: C3C_269  and  CAC_275 
REMARK   30  A    between atoms: C3D_282  and  CAD_288 
REMARK   31  A    between atoms: CAD_288  and  CBD_291 
REMARK   32  A    between atoms: CBD_291  and  CGD_294 
ROOT
HETATM    1  CHA HEM A 142       7.719  13.843  31.750  1.00 12.71     0.060 C 
HETATM    2  CHB HEM A 142       9.085   9.704  29.672  1.00 15.63     0.060 C 
HETATM    3  CHC HEM A 142       7.353  11.237  25.375  1.00  9.88     0.060 C 
HETATM    4  CHD HEM A 142       6.376  15.594  27.397  1.00  7.91     0.060 C 
HETATM    5  C1A HEM A 142       8.284  12.597  31.529  1.00 12.45     0.041 A 
HETATM    6  C2A HEM A 142       9.011  11.824  32.522  1.00 13.35    -0.023 A 
HETATM    7  C3A HEM A 142       9.390  10.689  31.959  1.00 14.78    -0.027 A 
HETATM    8  C4A HEM A 142       8.876  10.707  30.590  1.00 14.59     0.041 A 
HETATM    9  CMA HEM A 142      10.210   9.519  32.545  1.00 14.58     0.051 C 
HETATM   10  C1B HEM A 142       8.730   9.784  28.333  1.00 12.58     0.041 A 
HETATM   11  C2B HEM A 142       9.007   8.744  27.363  1.00 13.07    -0.023 A 
HETATM   12  C3B HEM A 142       8.550   9.164  26.180  1.00 11.69    -0.002 A 
HETATM   13  C4B HEM A 142       7.936  10.478  26.398  1.00  9.89     0.045 A 
HETATM   14  CMB HEM A 142       9.723   7.406  27.674  1.00 11.38     0.051 C 
HETATM   15  C1C HEM A 142       6.993  12.564  25.588  1.00  7.48     0.041 A 
HETATM   16  C2C HEM A 142       6.616  13.479  24.507  1.00  9.04    -0.023 A 
HETATM   17  C3C HEM A 142       6.334  14.656  25.061  1.00  8.23    -0.002 A 
HETATM   18  C4C HEM A 142       6.560  14.544  26.488  1.00  9.42     0.045 A 
HETATM   19  CMC HEM A 142       6.543  13.035  23.037  1.00 11.32     0.051 C 
HETATM   20  C1D HEM A 142       6.680  15.451  28.745  1.00  8.17     0.041 A 
HETATM   21  C2D HEM A 142       6.598  16.542  29.707  1.00 11.33    -0.027 A 
HETATM   22  C3D HEM A 142       6.979  16.072  30.903  1.00 10.91    -0.023 A 
HETATM   23  C4D HEM A 142       7.292  14.681  30.737  1.00 10.25     0.041 A 
HETATM   24  CMD HEM A 142       6.154  17.972  29.374  1.00  7.70     0.051 C 
HETATM   25  NA  HEM A 142       8.201  11.894  30.344  1.00 13.54    -0.355 N 
HETATM   26  HA  HEM A 142       7.745  12.184  29.479  1.00  0.00     0.166 HD
HETATM   27  NB  HEM A 142       8.063  10.843  27.713  1.00 11.26    -0.355 N 
HETATM   28  HB  HEM A 142       7.738  11.707  28.147  1.00  0.00     0.166 HD
HETATM   29  NC  HEM A 142       6.948  13.240  26.784  1.00  8.38    -0.355 N 
HETATM   30  HC  HEM A 142       7.158  12.861  27.708  1.00  0.00     0.166 HD
HETATM   31  ND  HEM A 142       7.114  14.335  29.401  1.00 10.59    -0.355 N 
HETATM   32  HD  HEM A 142       7.278  13.417  28.988  1.00  0.00     0.166 HD
ENDROOT
BRANCH   6  33
HETATM   33  CAA HEM A 142       9.299  12.287  33.985  1.00 13.99     0.052 C 
BRANCH  33  34
HETATM   34  CBA HEM A 142      10.308  13.451  34.051  1.00 19.03     0.118 C 
BRANCH  34  35
HETATM   35  CGA HEM A 142      10.979  13.718  35.382  1.00 23.98     0.172 C 
HETATM   36  O2A HEM A 142      11.374  14.865  35.642  1.00 22.84    -0.648 OA
HETATM   37  O1A HEM A 142      11.058  12.752  36.178  1.00 28.12    -0.648 OA
ENDBRANCH  34  35
ENDBRANCH  33  34
ENDBRANCH   6  33
BRANCH  22  38
HETATM   38  CAD HEM A 142       7.061  16.844  32.253  1.00 12.19     0.052 C 
BRANCH  38  39
HETATM   39  CBD HEM A 142       8.515  17.292  32.493  1.00 14.64     0.118 C 
BRANCH  39  40
HETATM   40  CGD HEM A 142       9.017  17.130  33.933  1.00 15.56     0.172 C 
HETATM   41  O1D HEM A 142       8.355  16.359  34.637  1.00 18.46    -0.648 OA
HETATM   42  O2D HEM A 142      10.042  17.752  34.233  1.00 17.66    -0.648 OA
ENDBRANCH  39  40
ENDBRANCH  38  39
ENDBRANCH  22  38
BRANCH  17  43
HETATM   43  CAC HEM A 142       5.906  15.987  24.412  1.00  8.91     0.004 C 
HETATM   44  CBC HEM A 142       6.817  16.734  23.765  1.00 10.56     0.012 C 
ENDBRANCH  17  43
BRANCH  12  45
HETATM   45  CAB HEM A 142       8.563   8.473  24.807  1.00 14.43     0.004 C 
HETATM   46  CBB HEM A 142       9.623   8.554  23.995  1.00 14.85     0.012 C 
ENDBRANCH  12  45
TORSDOF 32
ENDMDL
MODEL 9
REMARK VINA RESULT:      -9.6      4.084      9.686
REMARK  32 active torsions:
REMARK  status: ('A' for Active; 'I' for Inactive)
REMARK    1  A    between atoms: C2A_10  and  CAA_17 
REMARK    2  A    between atoms: CAA_17  and  CBA_20 
REMARK    3  A    between atoms: CBA_20  and  CGA_23 
REMARK    4  A    between atoms: C3B_28  and  CAB_34 
REMARK    5  A    between atoms: C3C_41  and  CAC_47 
REMARK    6  A    between atoms: C3D_54  and  CAD_60 
REMARK    7  A    between atoms: CAD_60  and  CBD_63 
REMARK    8  A    between atoms: CBD_63  and  CGD_66 
REMARK    9  A    between atoms: C2A_86  and  CAA_93 
REMARK   10  A    between atoms: CAA_93  and  CBA_96 
REMARK   11  A    between atoms: CBA_96  and  CGA_99 
REMARK   12  A    between atoms: C3B_104  and  CAB_110 
REMARK   13  A    between atoms: C3C_117  and  CAC_123 
REMARK   14  A    between atoms: C3D_130  and  CAD_136 
REMARK   15  A    between atoms: CAD_136  and  CBD_139 
REMARK   16  A    between atoms: CBD_139  and  CGD_142 
REMARK   17  A    between atoms: C2A_162  and  CAA_169 
REMARK   18  A    between atoms: CAA_169  and  CBA_172 
REMARK   19  A    between atoms: CBA_172  and  CGA_175 
REMARK   20  A    between atoms: C3B_180  and  CAB_186 
REMARK   21  A    between atoms: C3C_193  and  CAC_199 
REMARK   22  A    between atoms: C3D_206  and  CAD_212 
REMARK   23  A    between atoms: CAD_212  and  CBD_215 
REMARK   24  A    between atoms: CBD_215  and  CGD_218 
REMARK   25  A    between atoms: C2A_238  and  CAA_245 
REMARK   26  A    between atoms: CAA_245  and  CBA_248 
REMARK   27  A    between atoms: CBA_248  and  CGA_251 
REMARK   28  A    between atoms: C3B_256  and  CAB_262 
REMARK   29  A    between atoms: C3C_269  and  CAC_275 
REMARK   30  A    between atoms: C3D_282  and  CAD_288 
REMARK   31  A    between atoms: CAD_288  and  CBD_291 
REMARK   32  A    between atoms: CBD_291  and  CGD_294 
ROOT
HETATM    1  CHA HEM A 142       7.968  11.348  26.295  1.00 12.71     0.060 C 
HETATM    2  CHB HEM A 142       9.247  10.502  30.874  1.00 15.63     0.060 C 
HETATM    3  CHC HEM A 142       8.047  15.070  32.100  1.00  9.88     0.060 C 
HETATM    4  CHD HEM A 142       6.344  15.773  27.558  1.00  7.91     0.060 C 
HETATM    5  C1A HEM A 142       8.374  10.717  27.460  1.00 12.45     0.041 A 
HETATM    6  C2A HEM A 142       8.719   9.309  27.569  1.00 13.35    -0.023 A 
HETATM    7  C3A HEM A 142       9.069   9.070  28.821  1.00 14.78    -0.027 A 
HETATM    8  C4A HEM A 142       8.982  10.344  29.533  1.00 14.59     0.041 A 
HETATM    9  CMA HEM A 142       9.499   7.747  29.494  1.00 14.58     0.051 C 
HETATM   10  C1B HEM A 142       9.021  11.674  31.583  1.00 12.58     0.041 A 
HETATM   11  C2B HEM A 142       9.250  11.810  33.007  1.00 13.07    -0.023 A 
HETATM   12  C3B HEM A 142       8.908  13.054  33.353  1.00 11.69    -0.002 A 
HETATM   13  C4B HEM A 142       8.488  13.741  32.127  1.00  9.89     0.045 A 
HETATM   14  CMB HEM A 142       9.780  10.687  33.933  1.00 11.38     0.051 C 
HETATM   15  C1C HEM A 142       7.448  15.600  30.962  1.00  7.48     0.041 A 
HETATM   16  C2C HEM A 142       6.746  16.886  30.946  1.00  9.04    -0.023 A 
HETATM   17  C3C HEM A 142       6.300  17.083  29.707  1.00  8.23    -0.002 A 
HETATM   18  C4C HEM A 142       6.660  15.925  28.914  1.00  9.42     0.045 A 
HETATM   19  CMC HEM A 142       6.650  17.790  32.187  1.00 11.32     0.051 C 
HETATM   20  C1D HEM A 142       6.649  14.608  26.866  1.00  8.17     0.041 A 
HETATM   21  C2D HEM A 142       6.253  14.368  25.484  1.00 11.33    -0.027 A 
HETATM   22  C3D HEM A 142       6.684  13.148  25.134  1.00 10.91    -0.023 A 
HETATM   23  C4D HEM A 142       7.374  12.595  26.266  1.00 10.25     0.041 A 
HETATM   24  CMD HEM A 142       5.473  15.358  24.611  1.00  7.70     0.051 C 
HETATM   25  NA  HEM A 142       8.547  11.346  28.676  1.00 13.54    -0.355 N 
HETATM   26  HA  HEM A 142       8.390  12.329  28.897  1.00  0.00     0.166 HD
HETATM   27  NB  HEM A 142       8.555  12.883  31.061  1.00 11.26    -0.355 N 
HETATM   28  HB  HEM A 142       8.315  13.085  30.090  1.00  0.00     0.166 HD
HETATM   29  NC  HEM A 142       7.381  15.037  29.709  1.00  8.38    -0.355 N 
HETATM   30  HC  HEM A 142       7.780  14.144  29.419  1.00  0.00     0.166 HD
HETATM   31  ND  HEM A 142       7.320  13.507  27.316  1.00 10.59    -0.355 N 
HETATM   32  HD  HEM A 142       7.711  13.378  28.249  1.00  0.00     0.166 HD
ENDROOT
BRANCH   6  33
HETATM   33  CAA HEM A 142       8.657   8.277  26.399  1.00 13.99     0.052 C 
BRANCH  33  34
HETATM   34  CBA HEM A 142       9.274   8.821  25.095  1.00 19.03     0.118 C 
BRANCH  34  35
HETATM   35  CGA HEM A 142       8.581   8.468  23.796  1.00 23.98     0.172 C 
HETATM   36  O2A HEM A 142       8.159   7.312  23.630  1.00 22.84    -0.648 OA
HETATM   37  O1A HEM A 142       8.433   9.394  22.964  1.00 28.12    -0.648 OA
ENDBRANCH  34  35
ENDBRANCH  33  34
ENDBRANCH   6  33
BRANCH  22  38
HETATM   38  CAD HEM A 142       6.515  12.429  23.763  1.00 12.19     0.052 C 
BRANCH  38  39
HETATM   39  CBD HEM A 142       7.544  12.992  22.765  1.00 14.64     0.118 C 
BRANCH  39  40
HETATM   40  CGD HEM A 142       7.357  12.538  21.312  1.00 15.56     0.172 C 
HETATM   41  O1D HEM A 142       8.000  13.181  20.474  1.00 18.46    -0.648 OA
HETATM   42  O2D HEM A 142       6.619  11.564  21.129  1.00 17.66    -0.648 OA
ENDBRANCH  39  40
ENDBRANCH  38  39
ENDBRANCH  22  38
BRANCH  17  43
HETATM   43  CAC HEM A 142       5.481  18.246  29.115  1.00  8.91     0.004 C 
HETATM   44  CBC HEM A 142       5.844  19.514  29.373  1.00 10.56     0.012 C 
ENDBRANCH  17  43
BRANCH  12  45
HETATM   45  CAB HEM A 142       8.952  13.753  34.721  1.00 14.43     0.004 C 
HETATM   46  CBB HEM A 142       7.988  13.570  35.630  1.00 14.85     0.012 C 
ENDBRANCH  12  45
TORSDOF 32
ENDMDL
MODEL 10
REMARK VINA RESULT:      -9.5      2.187      6.481
REMARK  32 active torsions:
REMARK  status: ('A' for Active; 'I' for Inactive)
REMARK    1  A    between atoms: C2A_10  and  CAA_17 
REMARK    2  A    between atoms: CAA_17  and  CBA_20 
REMARK    3  A    between atoms: CBA_20  and  CGA_23 
REMARK    4  A    between atoms: C3B_28  and  CAB_34 
REMARK    5  A    between atoms: C3C_41  and  CAC_47 
REMARK    6  A    between atoms: C3D_54  and  CAD_60 
REMARK    7  A    between atoms: CAD_60  and  CBD_63 
REMARK    8  A    between atoms: CBD_63  and  CGD_66 
REMARK    9  A    between atoms: C2A_86  and  CAA_93 
REMARK   10  A    between atoms: CAA_93  and  CBA_96 
REMARK   11  A    between atoms: CBA_96  and  CGA_99 
REMARK   12  A    between atoms: C3B_104  and  CAB_110 
REMARK   13  A    between atoms: C3C_117  and  CAC_123 
REMARK   14  A    between atoms: C3D_130  and  CAD_136 
REMARK   15  A    between atoms: CAD_136  and  CBD_139 
REMARK   16  A    between atoms: CBD_139  and  CGD_142 
REMARK   17  A    between atoms: C2A_162  and  CAA_169 
REMARK   18  A    between atoms: CAA_169  and  CBA_172 
REMARK   19  A    between atoms: CBA_172  and  CGA_175 
REMARK   20  A    between atoms: C3B_180  and  CAB_186 
REMARK   21  A    between atoms: C3C_193  and  CAC_199 
REMARK   22  A    between atoms: C3D_206  and  CAD_212 
REMARK   23  A    between atoms: CAD_212  and  CBD_215 
REMARK   24  A    between atoms: CBD_215  and  CGD_218 
REMARK   25  A    between atoms: C2A_238  and  CAA_245 
REMARK   26  A    between atoms: CAA_245  and  CBA_248 
REMARK   27  A    between atoms: CBA_248  and  CGA_251 
REMARK   28  A    between atoms: C3B_256  and  CAB_262 
REMARK   29  A    between atoms: C3C_269  and  CAC_275 
REMARK   30  A    between atoms: C3D_282  and  CAD_288 
REMARK   31  A    between atoms: CAD_288  and  CBD_291 
REMARK   32  A    between atoms: CBD_291  and  CGD_294 
ROOT
HETATM    1  CHA HEM A 142       7.401  15.039  32.587  1.00 12.71     0.060 C 
HETATM    2  CHB HEM A 142       9.221  10.707  31.476  1.00 15.63     0.060 C 
HETATM    3  CHC HEM A 142       7.804  11.251  26.839  1.00  9.88     0.060 C 
HETATM    4  CHD HEM A 142       6.361  15.817  27.883  1.00  7.91     0.060 C 
HETATM    5  C1A HEM A 142       8.063  13.824  32.661  1.00 12.45     0.041 A 
HETATM    6  C2A HEM A 142       8.742  13.315  33.841  1.00 13.35    -0.023 A 
HETATM    7  C3A HEM A 142       9.245  12.130  33.543  1.00 14.78    -0.027 A 
HETATM    8  C4A HEM A 142       8.862  11.845  32.161  1.00 14.59     0.041 A 
HETATM    9  CMA HEM A 142      10.081  11.162  34.411  1.00 14.58     0.051 C 
HETATM   10  C1B HEM A 142       8.989  10.502  30.124  1.00 12.58     0.041 A 
HETATM   11  C2B HEM A 142       9.423   9.324  29.402  1.00 13.07    -0.023 A 
HETATM   12  C3B HEM A 142       9.052   9.473  28.127  1.00 11.69    -0.002 A 
HETATM   13  C4B HEM A 142       8.337  10.749  28.034  1.00  9.89     0.045 A 
HETATM   14  CMB HEM A 142      10.191   8.132  30.026  1.00 11.38     0.051 C 
HETATM   15  C1C HEM A 142       7.341  12.559  26.759  1.00  7.48     0.041 A 
HETATM   16  C2C HEM A 142       7.008  13.219  25.493  1.00  9.04    -0.023 A 
HETATM   17  C3C HEM A 142       6.599  14.453  25.780  1.00  8.23    -0.002 A 
HETATM   18  C4C HEM A 142       6.697  14.632  27.215  1.00  9.42     0.045 A 
HETATM   19  CMC HEM A 142       7.102  12.499  24.137  1.00 11.32     0.051 C 
HETATM   20  C1D HEM A 142       6.546  15.958  29.253  1.00  8.17     0.041 A 
HETATM   21  C2D HEM A 142       6.303  17.201  29.972  1.00 11.33    -0.027 A 
HETATM   22  C3D HEM A 142       6.600  16.999  31.264  1.00 10.91    -0.023 A 
HETATM   23  C4D HEM A 142       7.016  15.632  31.399  1.00 10.25     0.041 A 
HETATM   24  CMD HEM A 142       5.801  18.501  29.331  1.00  7.70     0.051 C 
HETATM   25  NA  HEM A 142       8.138  12.905  31.634  1.00 13.54    -0.355 N 
HETATM   26  HA  HEM A 142       7.747  12.987  30.696  1.00  0.00     0.166 HD
HETATM   27  NB  HEM A 142       8.315  11.367  29.257  1.00 11.26    -0.355 N 
HETATM   28  HB  HEM A 142       7.895  12.268  29.487  1.00  0.00     0.166 HD
HETATM   29  NC  HEM A 142       7.140  13.444  27.791  1.00  8.38    -0.355 N 
HETATM   30  HC  HEM A 142       7.287  13.266  28.785  1.00  0.00     0.166 HD
HETATM   31  ND  HEM A 142       6.988  15.025  30.147  1.00 10.59    -0.355 N 
HETATM   32  HD  HEM A 142       7.249  14.062  29.936  1.00  0.00     0.166 HD
ENDROOT
BRANCH   6  33
HETATM   33  CAA HEM A 142       8.861  14.070  35.203  1.00 13.99     0.052 C 
BRANCH  33  34
HETATM   34  CBA HEM A 142      10.232  14.750  35.386  1.00 19.03     0.118 C 
BRANCH  34  35
HETATM   35  CGA HEM A 142      11.002  14.436  36.652  1.00 23.98     0.172 C 
HETATM   36  O2A HEM A 142      11.514  13.314  36.787  1.00 22.84    -0.648 OA
HETATM   37  O1A HEM A 142      11.116  15.364  37.489  1.00 28.12    -0.648 OA
ENDBRANCH  34  35
ENDBRANCH  33  34
ENDBRANCH   6  33
BRANCH  22  38
HETATM   38  CAD HEM A 142       6.505  18.017  32.438  1.00 12.19     0.052 C 
BRANCH  38  39
HETATM   39  CBD HEM A 142       7.815  18.823  32.518  1.00 14.64     0.118 C 
BRANCH  39  40
HETATM   40  CGD HEM A 142       7.734  20.253  31.970  1.00 15.56     0.172 C 
HETATM   41  O1D HEM A 142       8.756  20.658  31.405  1.00 18.46    -0.648 OA
HETATM   42  O2D HEM A 142       6.655  20.838  32.115  1.00 17.66    -0.648 OA
ENDBRANCH  39  40
ENDBRANCH  38  39
ENDBRANCH  22  38
BRANCH  17  43
HETATM   43  CAC HEM A 142       6.149  15.597  24.851  1.00  8.91     0.004 C 
HETATM   44  CBC HEM A 142       7.067  16.419  24.316  1.00 10.56     0.012 C 
ENDBRANCH  17  43
BRANCH  12  45
HETATM   45  CAB HEM A 142       9.239   8.537  26.922  1.00 14.43     0.004 C 
HETATM   46  CBB HEM A 142       8.680   7.322  26.887  1.00 14.85     0.012 C 
ENDBRANCH  12  45
TORSDOF 32
ENDMDL
